@<TRIPOS>MOLECULE
2JL
   44    46     1     0     0
SMALL
bcc


@<TRIPOS>ATOM
      1 N          -0.6180   -0.5190   -0.2150 n3        1 2JL     -0.930800
      2 CA          2.3800   -0.4720    0.6410 c1        1 2JL     -0.329900
      3 CAF        -1.1190   -8.9630    5.4580 ca        1 2JL     -0.150000
      4 CAG        -0.3640   -8.7340    4.2940 ca        1 2JL     -0.153000
      5 CAH         1.3730   -3.4100    3.0950 ca        1 2JL     -0.069000
      6 CAI        -1.4330   -7.9080    6.2890 ca        1 2JL     -0.133000
      7 CAJ         0.0650   -7.4600    3.9800 ca        1 2JL     -0.107000
      8 CAK         0.9690   -4.7050    3.3650 ca        1 2JL     -0.146000
      9 CAL        -1.3370   -5.5040    6.8500 ca        1 2JL     -0.172000
     10 CAM        -0.9290   -4.2410    6.5600 ca        1 2JL     -0.082000
     11 CAN         0.2650   -2.6410    5.1070 ca        1 2JL     -0.117000
     12 CAO        -0.6950   -1.3130    0.9920 c3        1 2JL      0.136800
     13 CAP        -0.4330   -0.5440    2.3020 c3        1 2JL      0.079000
     14 CAU         1.0130   -2.3680    3.9780 ca        1 2JL     -0.110600
     15 CAV        -1.0040   -6.5960    5.9840 ca        1 2JL     -0.036000
     16 CAW        -0.1540   -3.9610    5.3890 ca        1 2JL     -0.069000
     17 CAX        -0.2410   -6.3580    4.8140 ca        1 2JL     -0.005000
     18 CAY         0.1980   -5.0150    4.5080 ca        1 2JL     -0.031000
     19 C           2.4040   -1.8150    0.1140 c         1 2JL      0.917600
     20 O           1.6550   -2.1290   -0.8800 o         1 2JL     -0.914800
     21 NAZ         0.9340   -0.2410    2.6560 n         1 2JL     -0.394000
     22 OAC         2.4440   -0.5360    4.4000 o         1 2JL     -0.608100
     23 CB          1.8270    0.2410    1.5900 ce        1 2JL     -0.251700
     24 CG          2.0520    1.7000    1.6740 c         1 2JL      0.706300
     25 OD1         0.9480    2.5340    1.5380 oh        1 2JL     -0.668100
     26 OD2         3.0830    2.3690    1.8020 o         1 2JL     -0.573000
     27 OXT         3.1820   -2.7050    0.6110 o         1 2JL     -0.914800
     28 H1         -0.2120   -1.0950   -0.9410 hn        1 2JL      0.368300
     29 H3          0.0300    0.2390   -0.0750 hn        1 2JL      0.368300
     30 H6          1.9880   -3.1740    2.1840 ha        1 2JL      0.256000
     31 H7         -2.0240   -8.0730    7.2010 ha        1 2JL      0.112000
     32 H8          0.6520   -7.2990    3.0620 ha        1 2JL      0.145000
     33 H9          1.2610   -5.4970    2.6610 ha        1 2JL      0.134000
     34 H10        -1.9310   -5.7200    7.7490 ha        1 2JL      0.109000
     35 H11        -1.1830   -3.3980    7.2210 ha        1 2JL      0.118000
     36 H12        -0.0040   -1.8320    5.8020 ha        1 2JL      0.126000
     37 H13         0.0070   -2.2000    0.9510 h1        1 2JL      0.029200
     38 H14        -1.7500   -1.7130    1.0520 h1        1 2JL      0.029200
     39 H15        -0.9210   -1.1360    3.1310 h1        1 2JL      0.010700
     40 H16        -0.9720    0.4490    2.2530 h1        1 2JL      0.010700
     41 H17         0.1670    1.9920    1.3780 ho        1 2JL      0.412000
     42 CAT         1.5240   -0.9780    3.6820 c         1 2JL      0.673700
     43 H4         -1.4530   -9.9820    5.6970 ha        1 2JL      0.108000
     44 H5         -0.1180   -9.5780    3.6340 ha        1 2JL      0.116000
@<TRIPOS>BOND
     1    1   12 1
     2    1   28 1
     3    1   29 1
     4    2   19 2
     5    2   23 2
     6    3    4 ar
     7    3    6 ar
     8    3   43 1
     9    4    7 ar
    10    4   44 1
    11    5    8 ar
    12    5   14 ar
    13    5   30 1
    14    6   15 ar
    15    6   31 1
    16    7   17 ar
    17    7   32 1
    18    8   18 ar
    19    8   33 1
    20    9   10 ar
    21    9   15 ar
    22    9   34 1
    23   10   16 ar
    24   10   35 1
    25   11   14 ar
    26   11   16 ar
    27   11   36 1
    28   12   13 1
    29   12   37 1
    30   12   38 1
    31   13   21 1
    32   13   39 1
    33   13   40 1
    34   14   42 1
    35   15   17 ar
    36   16   18 ar
    37   17   18 ar
    38   19   20 1
    39   19   27 1
    40   21   23 1
    41   21   42 1
    42   22   42 2
    43   23   24 1
    44   24   25 1
    45   24   26 2
    46   25   41 1
@<TRIPOS>SUBSTRUCTURE
     1 2JL         1 TEMP              0 ****  ****    0 ROOT
