@<TRIPOS>MOLECULE
molecule
   21    22     1     0     0
SMALL
bcc


@<TRIPOS>ATOM
      1 C4           0.0000     0.0000     0.0000 ca         1 2JM       0.175100
      2 C5           1.3850     0.0000     0.0000 ca         1 2JM      -0.083900
      3 C6           2.0780     0.0000     1.1980 ca         1 2JM      -0.067000
      4 C10         -2.1730     0.0010     1.2260 cc         1 2JM      -0.018300
      5 C13         -4.2810     0.6320     1.5450 cc         1 2JM      -0.027200
      6 Br1         -5.7920     1.6550     2.0420 br         1 2JM      -0.024100
      7 C12         -4.3080    -0.5920     0.9730 cd         1 2JM      -0.037900
      8 Br2         -5.8580    -1.5800     0.5270 br         1 2JM      -0.039100
      9 C11         -2.9790    -0.9970     0.7670 cd         1 2JM      -0.040900
     10 Br3         -2.4120    -2.6290    -0.0050 br         1 2JM      -0.037100
     11 N14         -2.9770     1.0050     1.7060 na         1 2JM      -0.134100
     12 C3          -0.6950     0.0010     1.2150 ca         1 2JM      -0.057000
     13 C2           0.0150     0.0020     2.4170 ca         1 2JM      -0.076000
     14 O2          -0.6820     0.0050    -1.1750 oh         1 2JM      -0.487100
     15 Br8          2.3290    -0.0020    -1.6380 br         1 2JM      -0.076100
     16 C1           1.3940     0.0010     2.4000 ca         1 2JM      -0.150000
     17 H1           3.1610    -0.0000     1.1940 ha         1 2JM       0.149000
     18 H2          -2.6610     1.8660     2.1060 hn         1 2JM       0.313700
     19 H3          -0.5170     0.0020     3.3610 ha         1 2JM       0.144000
     20 H4          -0.4070     0.7430    -1.6950 ho         1 2JM       0.430000
     21 H5           1.9440     0.0010     3.3330 ha         1 2JM       0.143000
@<TRIPOS>BOND
     1    15     2 1   
     2    14     1 1   
     3     2     1 ar  
     4     2     3 ar  
     5     1    12 ar  
     6     3    16 ar  
     7    12     4 1   
     8    12    13 ar  
     9    16    13 ar  
    10    11     4 1   
    11    11     5 1   
    12     4     9 2   
    13     6     5 1   
    14     5     7 2   
    15     9     7 1   
    16     9    10 1   
    17     7     8 1   
    18     3    17 1   
    19    11    18 1   
    20    13    19 1   
    21    14    20 1   
    22    16    21 1   
@<TRIPOS>SUBSTRUCTURE
     1 2JM         1 TEMP              0 ****  ****    0 ROOT
