@<TRIPOS>MOLECULE
2JM
   21    22     1     0     0
SMALL
bcc


@<TRIPOS>ATOM
      1 C4          0.0050    0.4560    0.1000 ca        1 2JM      0.169100
      2 C5          1.4130    0.4320    0.0880 ca        1 2JM     -0.115900
      3 C6          2.0980   -0.1460    1.1600 ca        1 2JM     -0.055000
      4 C10        -2.1660   -0.1480    1.1950 cc        1 2JM     -0.002300
      5 C13        -4.2930    0.6100    0.9670 cc        1 2JM     -0.048200
      6 BR1        -5.6700    1.7730    0.5850 br        1 2JM     -0.007100
      7 C12        -4.3770   -0.7180    1.4300 cd        1 2JM     -0.053900
      8 BR2        -5.9090   -1.6490    1.7860 br        1 2JM     -0.015100
      9 C11        -3.0310   -1.2030    1.5710 cd        1 2JM     -0.081900
     10 BR3        -2.5880   -2.8990    2.1020 br        1 2JM     -0.028100
     11 N14        -2.9510    0.9500    0.8460 na        1 2JM     -0.123100
     12 C3         -0.7130   -0.1170    1.1770 ca        1 2JM     -0.060000
     13 C2          0.0040   -0.6680    2.2440 ca        1 2JM     -0.053000
     14 O2         -0.7420    1.0410   -0.8930 oh        1 2JM     -0.506100
     15 BR8         2.4040    1.1520   -1.3320 br        1 2JM     -0.078100
     16 C1          1.3980   -0.6850    2.2340 ca        1 2JM     -0.164000
     17 H1          3.2000   -0.1720    1.1590 ha        1 2JM      0.152000
     18 H2         -2.5960    1.7760    0.4280 hn        1 2JM      0.322700
     19 H3         -0.5420   -1.0920    3.1030 ha        1 2JM      0.158000
     20 H4         -0.1540    1.2640   -1.6350 ho        1 2JM      0.442000
     21 H5          1.9450   -1.1290    3.0790 ha        1 2JM      0.148000
@<TRIPOS>BOND
     1    1    2 ar  
     2    1   12 ar  
     3    1   14 1   
     4    2    3 ar  
     5    2   15 1   
     6    3   16 ar  
     7    3   17 1   
     8    4    9 2   
     9    4   11 1   
    10    4   12 1   
    11    5    6 1   
    12    5    7 2   
    13    5   11 1   
    14    7    8 1   
    15    7    9 1   
    16    9   10 1   
    17   11   18 1   
    18   12   13 ar  
    19   13   16 ar  
    20   13   19 1   
    21   14   20 1   
    22   16   21 1   
@<TRIPOS>SUBSTRUCTURE
     1 2JM         1 TEMP              0 ****  ****    0 ROOT
