@<TRIPOS>MOLECULE
molecule
   33    34     1     0     0
SMALL
bcc


@<TRIPOS>ATOM
      1 C13          0.0000     0.0000     0.0000 ca         1 2JQ      -0.117000
      2 C15         -0.0270     0.0140     2.4000 ca         1 2JQ      -0.052000
      3 C17          2.0910     0.0220     3.7080 c          1 2JQ       0.868200
      4 C20         -2.2070     0.0060     1.1770 c3         1 2JQ       0.669200
      5 O01          4.1630    -0.8790     1.7940 o          1 2JQ      -0.455100
      6 C02          3.5570     0.0000     1.2120 c          1 2JQ       0.663700
      7 N03          4.2340     0.9750     0.5710 ns         1 2JQ      -0.555400
      8 C04          5.6240     0.9200     0.4890 ca         1 2JQ       0.586200
      9 C05          6.3060     1.8640    -0.2690 ca         1 2JQ      -0.324300
     10 C06          7.6860     1.7970    -0.3430 ca         1 2JQ      -0.070000
     11 C07          8.3390     0.7840     0.3480 ca         1 2JQ      -0.314300
     12 C08          7.5960    -0.1200     1.0810 ca         1 2JQ       0.464600
     13 C09          8.2990    -1.2220     1.8320 c3         1 2JQ      -0.136400
     14 N10          6.2810    -0.0300     1.1370 nb         1 2JQ      -0.667000
     15 C11          2.0780     0.0000     1.2060 ca         1 2JQ      -0.098600
     16 C12          1.3830     0.0000     0.0000 ca         1 2JQ      -0.144000
     17 C14         -0.7000     0.0060     1.1930 ca         1 2JQ      -0.196300
     18 C16          1.3660     0.0140     2.4200 ca         1 2JQ      -0.061600
     19 O18          3.3040    -0.0440     3.7230 o          1 2JQ      -0.808800
     20 O19          1.4070     0.1000     4.8650 o          1 2JQ      -0.808800
     21 F21         -2.6730     1.3250     1.1640 f          1 2JQ      -0.233967
     22 F22         -2.6610    -0.6600     0.0330 f          1 2JQ      -0.233967
     23 F23         -2.6860    -0.6460     2.3180 f          1 2JQ      -0.233967
     24 H1          -0.5380    -0.0030    -0.9400 ha         1 2JQ       0.123000
     25 H2          -0.5820     0.0190     3.3300 ha         1 2JQ       0.177000
     26 H3           3.7400     1.7520     0.1790 hn         1 2JQ       0.321500
     27 H4           5.7650     2.6410    -0.7950 ha         1 2JQ       0.125000
     28 H5           8.2450     2.5200    -0.9250 ha         1 2JQ       0.121000
     29 H6           9.4190     0.7040     0.3110 ha         1 2JQ       0.124000
     30 H7           8.2170    -1.0420     2.8970 hc         1 2JQ       0.049367
     31 H8           9.3440    -1.2430     1.5490 hc         1 2JQ       0.049367
     32 H9           7.8400    -2.1730     1.5900 hc         1 2JQ       0.049367
     33 H10          1.9250    -0.0050    -0.9380 ha         1 2JQ       0.120000
@<TRIPOS>BOND
     1    23     4 1
     2    22     4 1
     3     4    17 1
     4     4    21 1
     5    19     3 1
     6     2    17 ar
     7     2    18 ar
     8     3    20 1
     9     3    18 1
    10    17     1 ar
    11    18    15 ar
    12     1    16 ar
    13    15    16 ar
    14    15     6 1
    15     6     7 1
    16     6     5 2
    17     7     8 1
    18     8    14 ar
    19     8     9 ar
    20    14    12 ar
    21     9    10 ar
    22    12    13 1
    23    12    11 ar
    24    10    11 ar
    25     1    24 1
    26     2    25 1
    27     7    26 1
    28     9    27 1
    29    10    28 1
    30    11    29 1
    31    13    30 1
    32    13    31 1
    33    13    32 1
    34    16    33 1
@<TRIPOS>SUBSTRUCTURE
     1 2JQ         1 TEMP              0 ****  ****    0 ROOT
