@<TRIPOS>MOLECULE
2JR
   50    54     1     0     0
SMALL
bcc


@<TRIPOS>ATOM
      1 CAH        -0.1260   -0.1290   -0.1190 c3        1 2JR     -0.062400
      2 CAI         1.3760    0.0490   -0.1280 c3        1 2JR     -0.072400
      3 CAJ         1.9300    0.1570    1.2770 c3        1 2JR     -0.073400
      4 CAT         1.5180   -1.0310    2.1210 c3        1 2JR     -0.072400
      5 CAS         0.0160   -1.2100    2.1310 c3        1 2JR     -0.062400
      6 CAR        -0.5720   -1.3750    0.7000 c3        1 2JR      0.294500
      7 NAU        -0.0590   -2.5990    0.0790 n3        1 2JR     -0.741600
      8 CAV        -0.2730   -3.8420    0.8150 c3        1 2JR      0.164800
      9 CAY        -0.3920   -4.9900   -0.2010 c3        1 2JR     -0.087400
     10 CAX        -0.4830   -4.3320   -1.5720 c3        1 2JR     -0.087400
     11 CAW        -0.4120   -2.8160   -1.3220 c3        1 2JR      0.164800
     12 CAQ        -2.0750   -1.3010    0.8310 cc        1 2JR     -0.221700
     13 SAP        -3.1900   -2.4660    0.3420 ss        1 2JR     -0.106300
     14 CAG        -2.7580   -0.2230    1.3910 cd        1 2JR      0.330200
     15 NAF        -4.1330   -0.3280    1.4300 nd        1 2JR     -0.639000
     16 CAO        -4.5100   -1.4970    0.8940 cc        1 2JR      0.460900
     17 CAN        -5.8810   -1.9610    0.7550 ca        1 2JR     -0.167500
     18 CAM        -6.9510   -1.0810    0.9200 ca        1 2JR     -0.029000
     19 CAL        -8.2510   -1.5640    0.7710 ca        1 2JR     -0.105800
     20 CAK        -9.5600   -0.9580    0.8660 cc        1 2JR     -0.177200
     21 CAA       -10.4940   -1.9570    0.6130 cd        1 2JR     -0.111100
     22 NAB        -9.8430   -3.1710    0.3590 na        1 2JR     -0.192400
     23 CAC        -8.4680   -2.9580    0.4510 ca        1 2JR     -0.038200
     24 CAD        -7.3830   -3.8370    0.2890 ca        1 2JR     -0.146000
     25 CAE        -6.1090   -3.3240    0.4440 ca        1 2JR     -0.104000
     26 H1         -0.5060   -0.2090   -1.1700 hc        1 2JR      0.044700
     27 H2         -0.6040    0.7720    0.3460 hc        1 2JR      0.044700
     28 H3          1.6280    0.9800   -0.7010 hc        1 2JR      0.044700
     29 H4          1.8610   -0.8130   -0.6580 hc        1 2JR      0.044700
     30 H5          3.0480    0.2180    1.2360 hc        1 2JR      0.036200
     31 H6          1.5580    1.1020    1.7540 hc        1 2JR      0.036200
     32 H7          1.8740   -0.8810    3.1750 hc        1 2JR      0.044700
     33 H8          2.0120   -1.9590    1.7290 hc        1 2JR      0.044700
     34 H9         -0.2570   -2.0960    2.7590 hc        1 2JR      0.044700
     35 H10        -0.4620   -0.3070    2.5930 hc        1 2JR      0.044700
     36 H12         0.6130   -3.9930    1.4900 h1        1 2JR      0.041950
     37 H13        -1.1980   -3.8050    1.4600 h1        1 2JR      0.041950
     38 H14        -1.2970   -5.6090    0.0150 hc        1 2JR      0.047450
     39 H15         0.5010   -5.6580   -0.1380 hc        1 2JR      0.047450
     40 H16         0.3610   -4.6570   -2.2270 hc        1 2JR      0.047450
     41 H17        -1.4380   -4.5970   -2.0880 hc        1 2JR      0.047450
     42 H18        -1.3960   -2.3370   -1.5950 h1        1 2JR      0.041950
     43 H19         0.3900   -2.3430   -1.9500 h1        1 2JR      0.041950
     44 H20        -2.3020    0.6880    1.7990 h4        1 2JR      0.042100
     45 H21        -6.7830   -0.0210    1.1650 ha        1 2JR      0.158000
     46 H22        -9.7630    0.0840    1.0950 ha        1 2JR      0.160000
     47 H23       -11.5840   -1.9020    0.5920 h4        1 2JR      0.166000
     48 H24       -10.2780   -4.0300    0.1590 hn        1 2JR      0.298700
     49 H25        -7.5430   -4.8960    0.0490 ha        1 2JR      0.135000
     50 H26        -5.2430   -3.9970    0.3270 ha        1 2JR      0.131000
@<TRIPOS>BOND
     1    1    2 1   
     2    1    6 1   
     3    1   26 1   
     4    1   27 1   
     5    2    3 1   
     6    2   28 1   
     7    2   29 1   
     8    3    4 1   
     9    3   30 1   
    10    3   31 1   
    11    4    5 1   
    12    4   32 1   
    13    4   33 1   
    14    5    6 1   
    15    5   34 1   
    16    5   35 1   
    17    6    7 1   
    18    6   12 1   
    19    7    8 1   
    20    7   11 1   
    21    8    9 1   
    22    8   36 1   
    23    8   37 1   
    24    9   10 1   
    25    9   38 1   
    26    9   39 1   
    27   10   11 1   
    28   10   40 1   
    29   10   41 1   
    30   11   42 1   
    31   11   43 1   
    32   12   13 1   
    33   12   14 2   
    34   13   16 1   
    35   14   15 1   
    36   14   44 1   
    37   15   16 2   
    38   16   17 1   
    39   17   18 ar  
    40   17   25 ar  
    41   18   19 ar  
    42   18   45 1   
    43   19   20 1   
    44   19   23 ar  
    45   20   21 2   
    46   20   46 1   
    47   21   22 1   
    48   21   47 1   
    49   22   23 1   
    50   22   48 1   
    51   23   24 ar  
    52   24   25 ar  
    53   24   49 1   
    54   25   50 1   
@<TRIPOS>SUBSTRUCTURE
     1 2JR         1 TEMP              0 ****  ****    0 ROOT
