@<TRIPOS>MOLECULE
2JT
   67    66     1     0     0
SMALL
bcc


@<TRIPOS>ATOM
      1 C10        -0.1020    0.2370   -0.1860 c3        1 2JT     -0.079400
      2 C13        -2.6130    0.2770    2.7220 c3        1 2JT     -0.079400
      3 C15        -4.6210    0.2010    4.2070 c3        1 2JT     -0.079400
      4 C17        -6.6300    0.1300    5.6920 c3        1 2JT     -0.079400
      5 C20       -10.1390   -0.1300    7.2410 c3        1 2JT     -0.079400
      6 C21       -10.6500    0.0010    8.6600 c3        1 2JT     -0.079400
      7 C22       -12.1500   -0.1910    8.7240 c3        1 2JT     -0.079400
      8 C24       -14.1610   -0.2500   10.2090 c3        1 2JT     -0.080400
      9 O01         1.3330    0.8820   -2.6670 o         1 2JT     -0.541000
     10 C02         1.8870    0.4520   -1.6560 c         1 2JT      0.644100
     11 O03         3.1400   -0.0920   -1.7800 os        1 2JT     -0.449900
     12 C04         3.7600   -0.0530   -3.0770 c3        1 2JT      0.067100
     13 C05         4.3270    1.3410   -3.3540 c3        1 2JT      0.122400
     14 O06         5.1430    1.8280   -2.3140 oh        1 2JT     -0.601300
     15 C07         4.8380   -1.1400   -3.0310 c3        1 2JT      0.122400
     16 O08         5.7810   -0.9160   -2.0030 oh        1 2JT     -0.601300
     17 C09         1.3990    0.4300   -0.2410 c3        1 2JT     -0.126400
     18 C11        -0.6060    0.3580    1.2360 c3        1 2JT     -0.079400
     19 C12        -2.1040    0.1510    1.3020 c3        1 2JT     -0.079400
     20 C14        -4.1110    0.0730    2.7870 c3        1 2JT     -0.079400
     21 C16        -6.1200    0.0010    4.2720 c3        1 2JT     -0.079400
     22 C18        -8.1290   -0.0670    5.7570 c3        1 2JT     -0.079400
     23 C19        -8.6390    0.0630    7.1760 c3        1 2JT     -0.079400
     24 C23       -12.6600   -0.0590   10.1430 c3        1 2JT     -0.079400
     25 C25       -14.6740   -0.1190   11.6190 c3        1 2JT     -0.092100
     26 H1         -0.6020    1.0040   -0.8370 hc        1 2JT      0.057700
     27 H2         -0.3680   -0.7710   -0.5990 hc        1 2JT      0.057700
     28 H3         -2.1020   -0.4800    3.3730 hc        1 2JT      0.040200
     29 H4         -2.3530    1.2900    3.1260 hc        1 2JT      0.040200
     30 H5         -4.1120   -0.5570    4.8590 hc        1 2JT      0.039700
     31 H6         -4.3590    1.2140    4.6110 hc        1 2JT      0.039700
     32 H7         -6.1220   -0.6290    6.3440 hc        1 2JT      0.039700
     33 H8         -6.3650    1.1420    6.0960 hc        1 2JT      0.039700
     34 H9        -10.4050   -1.1430    6.8380 hc        1 2JT      0.039700
     35 H10       -10.6450    0.6290    6.5870 hc        1 2JT      0.039700
     36 H11       -10.1450   -0.7580    9.3130 hc        1 2JT      0.039700
     37 H12       -10.3830    1.0140    9.0630 hc        1 2JT      0.039700
     38 H13       -12.4170   -1.2030    8.3210 hc        1 2JT      0.039700
     39 H14       -12.6550    0.5690    8.0700 hc        1 2JT      0.039700
     40 H15       -14.4260   -1.2620    9.8030 hc        1 2JT      0.038700
     41 H16       -14.6630    0.5090    9.5530 hc        1 2JT      0.038700
     42 H17         2.9980   -0.3020   -3.8660 h1        1 2JT      0.081700
     43 H18         4.8960    1.3110   -4.3220 h1        1 2JT      0.058200
     44 H19         3.4840    2.0810   -3.4260 h1        1 2JT      0.058200
     45 H20         5.8820    1.2130   -2.2080 ho        1 2JT      0.418000
     46 H21         4.3540   -2.1440   -2.8970 h1        1 2JT      0.058200
     47 H22         5.4320   -1.1220   -3.9830 h1        1 2JT      0.058200
     48 H23         5.2910   -0.8700   -1.1710 ho        1 2JT      0.418000
     49 H24         1.6850    1.4120    0.2240 hc        1 2JT      0.080700
     50 H25         1.9220   -0.3830    0.3270 hc        1 2JT      0.080700
     51 H26        -0.3480    1.3710    1.6430 hc        1 2JT      0.041700
     52 H27        -0.0930   -0.4010    1.8850 hc        1 2JT      0.041700
     53 H28        -2.3620   -0.8630    0.8970 hc        1 2JT      0.042700
     54 H29        -2.6170    0.9070    0.6500 hc        1 2JT      0.042700
     55 H30        -4.6230    0.8290    2.1350 hc        1 2JT      0.040200
     56 H31        -4.3720   -0.9410    2.3840 hc        1 2JT      0.040200
     57 H32        -6.6290    0.7580    3.6200 hc        1 2JT      0.039700
     58 H33        -6.3820   -1.0130    3.8690 hc        1 2JT      0.039700
     59 H34        -8.6360    0.6920    5.1040 hc        1 2JT      0.039700
     60 H35        -8.3940   -1.0800    5.3540 hc        1 2JT      0.039700
     61 H36        -8.1340   -0.6960    7.8290 hc        1 2JT      0.039700
     62 H37        -8.3730    1.0760    7.5800 hc        1 2JT      0.039700
     63 H38       -12.3930    0.9540   10.5460 hc        1 2JT      0.039700
     64 H39       -12.1560   -0.8180   10.7970 hc        1 2JT      0.039700
     65 H40       -15.7810   -0.2640   11.6450 hc        1 2JT      0.032700
     66 H41       -14.4400    0.8920   12.0320 hc        1 2JT      0.032700
     67 H42       -14.2030   -0.8840   12.2830 hc        1 2JT      0.032700
@<TRIPOS>BOND
     1    1   17 1   
     2    1   18 1   
     3    1   26 1   
     4    1   27 1   
     5    2   19 1   
     6    2   20 1   
     7    2   28 1   
     8    2   29 1   
     9    3   20 1   
    10    3   21 1   
    11    3   30 1   
    12    3   31 1   
    13    4   21 1   
    14    4   22 1   
    15    4   32 1   
    16    4   33 1   
    17    5    6 1   
    18    5   23 1   
    19    5   34 1   
    20    5   35 1   
    21    6    7 1   
    22    6   36 1   
    23    6   37 1   
    24    7   24 1   
    25    7   38 1   
    26    7   39 1   
    27    8   24 1   
    28    8   25 1   
    29    8   40 1   
    30    8   41 1   
    31    9   10 2   
    32   10   11 1   
    33   10   17 1   
    34   11   12 1   
    35   12   13 1   
    36   12   15 1   
    37   12   42 1   
    38   13   14 1   
    39   13   43 1   
    40   13   44 1   
    41   14   45 1   
    42   15   16 1   
    43   15   46 1   
    44   15   47 1   
    45   16   48 1   
    46   17   49 1   
    47   17   50 1   
    48   18   19 1   
    49   18   51 1   
    50   18   52 1   
    51   19   53 1   
    52   19   54 1   
    53   20   55 1   
    54   20   56 1   
    55   21   57 1   
    56   21   58 1   
    57   22   23 1   
    58   22   59 1   
    59   22   60 1   
    60   23   61 1   
    61   23   62 1   
    62   24   63 1   
    63   24   64 1   
    64   25   65 1   
    65   25   66 1   
    66   25   67 1   
@<TRIPOS>SUBSTRUCTURE
     1 2JT         1 TEMP              0 ****  ****    0 ROOT
