@<TRIPOS>MOLECULE
molecule
   67    66     1     0     0
SMALL
bcc


@<TRIPOS>ATOM
      1 C10          0.0000     0.0000     0.0000 c3         1 2JT      -0.073400
      2 C13         -2.5500    -0.0000     2.8860 c3         1 2JT      -0.082400
      3 C15         -4.5900    -0.0000     4.3280 c3         1 2JT      -0.082400
      4 C17         -6.6300    -0.0010     5.7700 c3         1 2JT      -0.082400
      5 C20        -10.2000    -0.0010     7.2140 c3         1 2JT      -0.082400
      6 C21        -10.7090    -0.0010     8.6560 c3         1 2JT      -0.081400
      7 C22        -12.2390    -0.0010     8.6560 c3         1 2JT      -0.082400
      8 C24        -14.2790    -0.0020    10.0990 c3         1 2JT      -0.084400
      9 O01          1.2470     0.0000    -2.3390 o          1 2JT      -0.563000
     10 C02          2.0320     0.0010    -1.4210 c          1 2JT       0.628100
     11 O03          3.3520     0.0010    -1.6660 os         1 2JT      -0.401900
     12 C04          3.7630     0.0000    -3.0590 c3         1 2JT       0.155100
     13 C05          3.9070     1.4430    -3.5470 c3         1 2JT       0.137400
     14 O06          4.9710     2.0820    -2.8380 oh         1 2JT      -0.570300
     15 C07          5.1060    -0.7200    -3.1940 c3         1 2JT       0.137400
     16 O08          6.1150     0.0170    -2.5010 oh         1 2JT      -0.570300
     17 C09          1.5300     0.0000     0.0000 c3         1 2JT      -0.125400
     18 C11         -0.5100     0.0000     1.4430 c3         1 2JT      -0.083400
     19 C12         -2.0400    -0.0000     1.4430 c3         1 2JT      -0.080400
     20 C14         -4.0800    -0.0000     2.8860 c3         1 2JT      -0.081400
     21 C16         -6.1200    -0.0000     4.3280 c3         1 2JT      -0.081400
     22 C18         -8.1590    -0.0010     5.7720 c3         1 2JT      -0.081400
     23 C19         -8.6690    -0.0010     7.2130 c3         1 2JT      -0.082400
     24 C23        -12.7490    -0.0020    10.0990 c3         1 2JT      -0.081400
     25 C25        -14.7890    -0.0020    11.5420 c3         1 2JT      -0.092100
     26 H1          -0.3610    -0.8840    -0.5110 hc         1 2JT       0.057700
     27 H2          -0.3610     0.8840    -0.5110 hc         1 2JT       0.057700
     28 H3          -2.1890     0.8840     3.3970 hc         1 2JT       0.041200
     29 H4          -2.1890    -0.8850     3.3960 hc         1 2JT       0.041200
     30 H5          -4.2290    -0.8850     4.8390 hc         1 2JT       0.040700
     31 H6          -4.2290     0.8840     4.8390 hc         1 2JT       0.040700
     32 H7          -6.2690    -0.8860     6.2800 hc         1 2JT       0.040700
     33 H8          -6.2680     0.8830     6.2810 hc         1 2JT       0.040700
     34 H9         -10.5610     0.8830     6.7030 hc         1 2JT       0.040700
     35 H10        -10.5610    -0.8860     6.7030 hc         1 2JT       0.040700
     36 H11        -10.3480    -0.8860     9.1670 hc         1 2JT       0.040700
     37 H12        -10.3480     0.8830     9.1670 hc         1 2JT       0.040700
     38 H13        -12.6000     0.8830     8.1460 hc         1 2JT       0.040700
     39 H14        -12.6000    -0.8860     8.1450 hc         1 2JT       0.040700
     40 H15        -14.6400    -0.8860     9.5890 hc         1 2JT       0.039700
     41 H16        -14.6400     0.8830     9.5890 hc         1 2JT       0.039700
     42 H17          3.0170    -0.5100    -3.6560 h1         1 2JT       0.080700
     43 H18          4.1280     1.4440    -4.6080 h1         1 2JT       0.028450
     44 H19          2.9830     1.9780    -3.3700 h1         1 2JT       0.028450
     45 H20          4.9750     3.0030    -3.0400 ho         1 2JT       0.391500
     46 H21          5.3700    -0.7970    -4.2420 h1         1 2JT       0.028450
     47 H22          5.0270    -1.7130    -2.7680 h1         1 2JT       0.028450
     48 H23          6.8870    -0.5160    -2.4090 ho         1 2JT       0.391500
     49 H24          1.8910    -0.8850     0.5100 hc         1 2JT       0.073700
     50 H25          1.8910     0.8840     0.5110 hc         1 2JT       0.073700
     51 H26         -0.1490    -0.8840     1.9530 hc         1 2JT       0.041200
     52 H27         -0.1490     0.8840     1.9530 hc         1 2JT       0.041200
     53 H28         -2.4010     0.8850     0.9320 hc         1 2JT       0.043700
     54 H29         -2.4010    -0.8840     0.9320 hc         1 2JT       0.043700
     55 H30         -4.4410    -0.8850     2.3750 hc         1 2JT       0.041700
     56 H31         -4.4410     0.8840     2.3750 hc         1 2JT       0.041700
     57 H32         -6.4810    -0.8840     3.8170 hc         1 2JT       0.041200
     58 H33         -6.4810     0.8850     3.8180 hc         1 2JT       0.041200
     59 H34         -8.5200     0.8850     5.2620 hc         1 2JT       0.040700
     60 H35         -8.5210    -0.8840     5.2600 hc         1 2JT       0.040700
     61 H36         -8.3080     0.8830     7.7250 hc         1 2JT       0.040700
     62 H37         -8.3080    -0.8860     7.7240 hc         1 2JT       0.040700
     63 H38        -12.3880    -0.8860    10.6100 hc         1 2JT       0.040700
     64 H39        -12.3880     0.8830    10.6100 hc         1 2JT       0.040700
     65 H40        -14.4280    -0.8860    12.0530 hc         1 2JT       0.032367
     66 H41        -15.8720    -0.0020    11.5420 hc         1 2JT       0.032367
     67 H42        -14.4280     0.8830    12.0530 hc         1 2JT       0.032367
@<TRIPOS>BOND
     1     6     7 1   
     2     6     5 1   
     3    23     5 1   
     4    23    22 1   
     5     4    21 1   
     6     4    22 1   
     7     7    24 1   
     8    24     8 1   
     9    21     3 1   
    10     8    25 1   
    11     3    20 1   
    12    20     2 1   
    13     2    19 1   
    14     9    10 2   
    15    13    14 1   
    16    13    12 1   
    17    19    18 1   
    18    10    11 1   
    19    10    17 1   
    20    11    12 1   
    21    15    16 1   
    22    15    12 1   
    23    17     1 1   
    24    18     1 1   
    25     1    26 1   
    26     1    27 1   
    27     2    28 1   
    28     2    29 1   
    29     3    30 1   
    30     3    31 1   
    31     4    32 1   
    32     4    33 1   
    33     5    34 1   
    34     5    35 1   
    35     6    36 1   
    36     6    37 1   
    37     7    38 1   
    38     7    39 1   
    39     8    40 1   
    40     8    41 1   
    41    12    42 1   
    42    13    43 1   
    43    13    44 1   
    44    14    45 1   
    45    15    46 1   
    46    15    47 1   
    47    16    48 1   
    48    17    49 1   
    49    17    50 1   
    50    18    51 1   
    51    18    52 1   
    52    19    53 1   
    53    19    54 1   
    54    20    55 1   
    55    20    56 1   
    56    21    57 1   
    57    21    58 1   
    58    22    59 1   
    59    22    60 1   
    60    23    61 1   
    61    23    62 1   
    62    24    63 1   
    63    24    64 1   
    64    25    65 1   
    65    25    66 1   
    66    25    67 1   
@<TRIPOS>SUBSTRUCTURE
     1 2JT         1 TEMP              0 ****  ****    0 ROOT
