@<TRIPOS>MOLECULE
2JW
   47    50     1     0     0
SMALL
bcc


@<TRIPOS>ATOM
      1 O2           0.0000     0.0000     0.0000 o          1 2JW      -0.720500
      2 C2           1.2160     0.0000     0.0000 c          1 2JW       0.590500
      3 N3           1.8800     0.0000     1.1710 ns         1 2JW      -0.130500
      4 C4           3.2280    -0.0060     1.1880 c          1 2JW       0.630700
      5 O4           3.8300    -0.0060     2.2470 o          1 2JW      -0.682500
      6 C5           3.9380    -0.0120    -0.0370 cc         1 2JW      -0.315400
      7 CAR          5.4450    -0.0190    -0.0450 c3         1 2JW       0.109100
      8 C6           3.2470    -0.0130    -1.1970 cd         1 2JW      -0.077400
      9 N1           1.8790    -0.0060    -1.1710 n          1 2JW       0.045000
     10 CAJ          1.1290    -0.0130    -2.4290 c3         1 2JW       0.234500
     11 OAF          2.0080    -0.3240    -3.5180 os         1 2JW      -0.433600
     12 CAI          0.5370     1.3910    -2.6930 c3         1 2JW      -0.203400
     13 CAG          0.7450     1.5390    -4.2180 c3         1 2JW       0.157100
     14 OAH          0.8110     2.8940    -4.6080 os         1 2JW      -0.326600
     15 CAE          2.0870     0.8020    -4.4180 c3         1 2JW       0.110100
     16 CAC          3.2450     1.6830    -3.9380 c3         1 2JW       0.091400
     17 OAD          3.1210     2.9990    -4.4730 os         1 2JW      -0.335600
     18 CAB          1.9050     3.6450    -4.0790 c3         1 2JW       0.477700
     19 PAA          1.8650     5.3420    -4.7450 p5         1 2JW       0.404700
     20 OBA          0.5420     6.0940    -4.2190 o          1 2JW      -0.686500
     21 OBC          3.0650     6.0790    -4.2900 o          1 2JW      -0.686500
     22 OBB          1.8460     5.2870    -6.3530 o          1 2JW      -0.686500
     23 CAU          1.8140     3.6860    -2.5760 ca         1 2JW       0.005700
     24 CAV          2.9170     3.3630    -1.8080 ca         1 2JW      -0.128500
     25 CAW          2.8350     3.4010    -0.4290 ca         1 2JW      -0.041000
     26 CAX          1.6480     3.7600     0.1830 ca         1 2JW      -0.530200
     27 NCA          1.5600     3.8000     1.6610 no         1 2JW       1.065200
     28 OCA          0.5140     4.1170     2.1990 o          1 2JW      -0.495000
     29 OCB          2.5310     3.5140     2.3370 o          1 2JW      -0.495000
     30 CAY          0.5460     4.0840    -0.5840 ca         1 2JW      -0.041000
     31 CAZ          0.6290     4.0510    -1.9640 ca         1 2JW      -0.128500
     32 H1           1.3710     0.0040     2.0330 hn         1 2JW       0.199500
     33 H2           5.8120     0.9300     0.3270 hc         1 2JW       0.003033
     34 H3           5.8000    -0.1720    -1.0570 hc         1 2JW       0.003033
     35 H4           5.8060    -0.8200     0.5880 hc         1 2JW       0.003033
     36 H5           3.7740    -0.0180    -2.1430 h4         1 2JW       0.166000
     37 H6           0.3300    -0.7430    -2.3830 h2         1 2JW       0.041700
     38 H7           1.0910     2.1500    -2.1540 hc         1 2JW       0.085200
     39 H8          -0.5170     1.4180    -2.4440 hc         1 2JW       0.085200
     40 H9          -0.0460     1.0300    -4.7560 h1         1 2JW       0.025700
     41 H10          2.2210     0.4850    -5.4450 h1         1 2JW       0.050700
     42 H11          4.1820     1.2500    -4.2670 h1         1 2JW       0.014200
     43 H12          3.2290     1.7340    -2.8560 h1         1 2JW       0.014200
     44 H15          3.8470     3.0820    -2.2870 ha         1 2JW       0.154000
     45 H16          3.7000     3.1480     0.1730 ha         1 2JW       0.112000
     46 H17         -0.3830     4.3680    -0.1040 ha         1 2JW       0.112000
     47 H18         -0.2360     4.3050    -2.5650 ha         1 2JW       0.154000
@<TRIPOS>BOND
     1     1     2 2   
     2     2     3 1   
     3     2     9 1   
     4     3     4 1   
     5     3    32 1   
     6     4     5 2   
     7     4     6 1   
     8     6     7 1   
     9     6     8 2   
    10     7    33 1   
    11     7    34 1   
    12     7    35 1   
    13     8     9 1   
    14     8    36 1   
    15     9    10 1   
    16    10    11 1   
    17    10    12 1   
    18    10    37 1   
    19    11    15 1   
    20    12    13 1   
    21    12    38 1   
    22    12    39 1   
    23    13    14 1   
    24    13    15 1   
    25    13    40 1   
    26    14    18 1   
    27    15    16 1   
    28    15    41 1   
    29    16    17 1   
    30    16    42 1   
    31    16    43 1   
    32    17    18 1   
    33    18    19 1   
    34    18    23 1   
    35    19    20 1   
    36    19    21 1   
    37    19    22 1   
    38    23    24 ar  
    39    23    31 ar  
    40    24    25 ar  
    41    24    44 1   
    42    25    26 ar  
    43    25    45 1   
    44    26    27 1   
    45    26    30 ar  
    46    27    28 1   
    47    27    29 1   
    48    30    31 ar  
    49    30    46 1   
    50    31    47 1   
@<TRIPOS>SUBSTRUCTURE
     1 2JW         1 TEMP              0 ****  ****    0 ROOT
