@<TRIPOS>MOLECULE
2JX
   25    27     1     0     0
SMALL
bcc


@<TRIPOS>ATOM
      1 C2           0.0000     0.0000     0.0000 cs         1 2JX       0.167400
      2 N3           1.3480     0.0000     0.0000 ns         1 2JX       0.138600
      3 S1          -1.0140    -0.0070    -1.3800 s          1 2JX      -0.664400
      4 C4           1.7790     0.0000     1.3040 cc         1 2JX       0.202900
      5 N5           0.7480     0.0020     2.0850 n2         1 2JX      -0.598300
      6 N6          -0.4040     0.0010     1.2870 ns         1 2JX       0.260100
      7 C7           3.2190     0.0000     1.7500 c3         1 2JX       0.141800
      8 C8           3.2990    -0.3730     3.2370 c3         1 2JX       0.182400
      9 O9           4.6750    -0.3510     3.6320 os         1 2JX      -0.294900
     10 C10          5.4080     0.7240     3.2330 ca         1 2JX       0.069100
     11 C11          4.9620     1.5510     2.2100 ca         1 2JX       0.061100
     12 O12          3.7760     1.3080     1.5860 os         1 2JX      -0.299900
     13 C13          5.7270     2.6390     1.8170 ca         1 2JX      -0.095000
     14 C14          6.9300     2.9000     2.4450 ca         1 2JX      -0.100000
     15 C15          7.3740     2.0800     3.4640 ca         1 2JX      -0.094000
     16 C16          6.6170     0.9940     3.8600 ca         1 2JX      -0.099000
     17 H1           1.9340    -0.0010    -0.8110 hn         1 2JX       0.213500
     18 H2          -1.3510     0.0020     1.6120 hn         1 2JX       0.233500
     19 H3           3.7870    -0.7130     1.1660 h1         1 2JX       0.038700
     20 H4           2.7540     0.3640     3.8150 h1         1 2JX       0.041700
     21 H5           2.9090    -1.3740     3.3710 h1         1 2JX       0.041700
     22 H6           5.3810     3.2830     1.0180 ha         1 2JX       0.117000
     23 H7           7.5270     3.7510     2.1370 ha         1 2JX       0.109000
     24 H8           8.3180     2.2880     3.9540 ha         1 2JX       0.108000
     25 H9           6.9670     0.3520     4.6590 ha         1 2JX       0.118000
@<TRIPOS>BOND
     1     1     2 1   
     2     1     3 2   
     3     1     6 1   
     4     2     4 1   
     5     2    17 1   
     6     4     5 2   
     7     4     7 1   
     8     5     6 1   
     9     6    18 1   
    10     7     8 1   
    11     7    12 1   
    12     7    19 1   
    13     8     9 1   
    14     8    20 1   
    15     8    21 1   
    16     9    10 1   
    17    10    11 ar  
    18    10    16 ar  
    19    11    12 1   
    20    11    13 ar  
    21    13    14 ar  
    22    13    22 1   
    23    14    15 ar  
    24    14    23 1   
    25    15    16 ar  
    26    15    24 1   
    27    16    25 1   
@<TRIPOS>SUBSTRUCTURE
     1 2JX         1 TEMP              0 ****  ****    0 ROOT
