@<TRIPOS>MOLECULE
molecule
   64    68     1     0     0
SMALL
bcc


@<TRIPOS>ATOM
      1 C4           0.0000     0.0000     0.0000 ca         1 2JZ      -0.102000
      2 C5           9.0830     0.2550    11.6450 ca         1 2JZ      -0.255300
      3 C6          -0.0030    -0.0020     2.3940 ca         1 2JZ      -0.097000
      4 C7           1.3810     0.0000     0.0000 ca         1 2JZ      -0.164000
      5 C8           8.8400    -0.9540    11.0590 ca         1 2JZ      -0.083000
      6 C10          5.5490    -7.3380     6.2480 ca         1 2JZ      -0.121000
      7 C13          8.1070     1.2480    11.6210 ca         1 2JZ       0.425200
      8 C15          3.6320    -8.4020     5.2590 ca         1 2JZ      -0.220000
      9 C17          2.6030    -1.4220     4.0190 c3         1 2JZ       0.248800
     10 C20          4.4040    -7.2660     5.4660 ca         1 2JZ       0.151600
     11 C21          1.3790    -0.0010     2.3980 ca         1 2JZ      -0.122300
     12 C22          6.6400    -0.1010    10.4570 ca         1 2JZ       0.406600
     13 C24          2.0740     0.0000     1.2000 ca         1 2JZ       0.137900
     14 C26          3.8580    -2.6010     5.7840 ca         1 2JZ       1.021900
     15 C28          4.1960    -4.8700     5.5880 ca         1 2JZ       1.021900
     16 C1           6.7170   -10.8550     7.9680 c3         1 2JZ       0.128700
     17 C2           2.0880   -10.5760     4.8160 c3         1 2JZ       0.127700
     18 C3          -0.6920    -0.0010     1.1960 ca         1 2JZ      -0.141000
     19 C9           5.1010    -1.4830     9.2480 ca         1 2JZ      -0.108000
     20 C11          5.3900    -0.2950     9.8440 ca         1 2JZ      -0.160300
     21 C12          5.9240    -8.5400     6.8200 ca         1 2JZ      -0.181000
     22 C14          7.2690    -2.3710     9.8230 ca         1 2JZ      -0.154000
     23 C16          2.1300    -0.0020     3.7040 c3         1 2JZ      -0.053100
     24 C18          7.5900    -1.1540    10.4430 ca         1 2JZ      -0.138300
     25 C19          6.0340    -2.5260     9.2330 ca         1 2JZ       0.166600
     26 C23          5.1570    -9.6750     6.6140 ca         1 2JZ       0.101100
     27 C25          4.0080    -9.6060     5.8320 ca         1 2JZ       0.129100
     28 C27          5.0210    -3.7360     7.4140 ca         1 2JZ       1.017900
     29 N29          6.9440     1.0590    11.0480 nb         1 2JZ      -0.678000
     30 N30          4.5200    -2.6010     6.9360 nb         1 2JZ      -0.926000
     31 N31          3.6950    -3.7350     5.1090 nb         1 2JZ      -0.924000
     32 N32          4.8580    -4.8700     6.7410 nb         1 2JZ      -0.922000
     33 N33          3.3330    -1.4230     5.2900 nu         1 2JZ      -0.891900
     34 N34          5.7100    -3.7370     8.6120 nu         1 2JZ      -0.756300
     35 N35          4.0270    -6.0490     4.8880 nu         1 2JZ      -0.747300
     36 O36          5.5270   -10.8580     7.1770 os         1 2JZ      -0.314900
     37 O37          3.2530   -10.7190     5.6300 os         1 2JZ      -0.311900
     38 F38          3.4240    -0.0000     1.2010 f          1 2JZ      -0.137900
     39 H4          -0.5410     0.0000    -0.9380 ha         1 2JZ       0.137000
     40 H5          10.0350     0.4420    12.1260 ha         1 2JZ       0.136000
     41 H6          -0.5470    -0.0030     3.3320 ha         1 2JZ       0.138000
     42 H7           1.9230     0.0010    -0.9380 ha         1 2JZ       0.147000
     43 H8           9.5880    -1.7370    11.0680 ha         1 2JZ       0.138000
     44 H10          6.1510    -6.4520     6.4090 ha         1 2JZ       0.169000
     45 H13          8.3150     2.2020    12.0900 h4         1 2JZ       0.021100
     46 H15          2.7380    -8.3470     4.6490 ha         1 2JZ       0.142000
     47 H17          1.7450    -2.0800     4.0950 h1         1 2JZ       0.059200
     48 H17A         3.2550    -1.7700     3.2280 h1         1 2JZ       0.059200
     49 H1           7.5570   -10.5490     7.3560 h1         1 2JZ       0.039033
     50 H1A          6.6000   -10.1630     8.7940 h1         1 2JZ       0.039033
     51 H1B          6.8960   -11.8510     8.3550 h1         1 2JZ       0.039033
     52 H2           1.5820   -11.5310     4.7380 h1         1 2JZ       0.039700
     53 H2A          1.4210    -9.8500     5.2650 h1         1 2JZ       0.039700
     54 H2B          2.3760   -10.2380     3.8280 h1         1 2JZ       0.039700
     55 H3          -1.7760    -0.0020     1.1940 ha         1 2JZ       0.136000
     56 H9           4.1350    -1.6240     8.7790 ha         1 2JZ       0.167000
     57 H11          4.6560     0.5020     9.8470 ha         1 2JZ       0.150000
     58 H12          6.8180    -8.5940     7.4290 ha         1 2JZ       0.141000
     59 H14          7.9870    -3.1820     9.8080 ha         1 2JZ       0.136000
     60 H16          1.4780     0.3460     4.4960 hc         1 2JZ       0.059200
     61 H16A         2.9880     0.6560     3.6270 hc         1 2JZ       0.059200
     62 HN33         3.4700    -0.5660     5.7890 hn         1 2JZ       0.459800
     63 HN34         5.9450    -4.6030     9.0540 hn         1 2JZ       0.469800
     64 HN35         3.6630    -6.0290     3.9560 hn         1 2JZ       0.467800
@<TRIPOS>BOND
     1     1     4 ar  
     2     1    18 ar  
     3     2     5 ar  
     4     2     7 ar  
     5     3    11 ar  
     6     3    18 ar  
     7     4    13 ar  
     8     5    24 ar  
     9     6    10 ar  
    10     6    21 ar  
    11     7    29 ar  
    12     8    10 ar  
    13     8    27 ar  
    14     9    23 1   
    15     9    33 1   
    16    10    35 1   
    17    11    13 ar  
    18    11    23 1   
    19    12    20 ar  
    20    12    24 ar  
    21    12    29 ar  
    22    13    38 1   
    23    14    30 ar  
    24    14    31 ar  
    25    14    33 1   
    26    15    31 ar  
    27    15    32 ar  
    28    15    35 1   
    29    16    36 1   
    30    17    37 1   
    31    19    20 ar  
    32    19    25 ar  
    33    21    26 ar  
    34    22    24 ar  
    35    22    25 ar  
    36    25    34 1   
    37    26    27 ar  
    38    26    36 1   
    39    27    37 1   
    40    28    30 ar  
    41    28    32 ar  
    42    28    34 1   
    43     1    39 1   
    44     2    40 1   
    45     3    41 1   
    46     4    42 1   
    47     5    43 1   
    48     6    44 1   
    49     7    45 1   
    50     8    46 1   
    51     9    47 1   
    52     9    48 1   
    53    16    49 1   
    54    16    50 1   
    55    16    51 1   
    56    17    52 1   
    57    17    53 1   
    58    17    54 1   
    59    18    55 1   
    60    19    56 1   
    61    20    57 1   
    62    21    58 1   
    63    22    59 1   
    64    23    60 1   
    65    23    61 1   
    66    33    62 1   
    67    34    63 1   
    68    35    64 1   
@<TRIPOS>SUBSTRUCTURE
     1 2JZ         1 TEMP              0 ****  ****    0 ROOT
