@<TRIPOS>MOLECULE
2K0
   53    57     1     0     0
SMALL
bcc


@<TRIPOS>ATOM
      1 C1           0.0000     0.0000     0.0000 ca         1 2K0      -0.111000
      2 C2           1.3820     0.0000     0.0000 ca         1 2K0      -0.010600
      3 C3           2.0760     0.0000     1.2130 ca         1 2K0      -0.157600
      4 C7           3.5540    -0.0010     1.2220 c          1 2K0       0.682900
      5 C8           4.2900    -1.2320     0.9130 cc         1 2K0      -0.248400
      6 C9           3.7580    -2.4720     0.6980 cd         1 2K0      -0.213100
      7 C10          5.9780    -2.7330     0.4740 ca         1 2K0       0.197800
      8 C11          5.7500    -1.3780     0.7670 ca         1 2K0      -0.149100
      9 C12          6.8260    -0.5010     0.8630 ca         1 2K0      -0.025000
     10 C13          8.1060    -1.0130     0.6610 ca         1 2K0      -0.108300
     11 C14          8.2560    -2.3710     0.3710 ca         1 2K0       0.403200
     12 C15          9.2950    -0.1260     0.7480 cc         1 2K0      -0.262300
     13 C16          9.2850     1.2520     1.0360 cc         1 2K0       0.409200
     14 C19         13.2270     0.8270    -0.8310 c3         1 2K0      -0.042400
     15 C20         14.7530     0.8180    -0.9380 c3         1 2K0       0.152800
     16 C21         14.9380    -0.6260     0.9990 c3         1 2K0       0.152800
     17 C22         13.4170    -0.6590     1.1640 c3         1 2K0      -0.042400
     18 Cl           2.2520    -0.0030    -1.5020 cl         1 2K0      -0.010400
     19 C4           1.3670     0.0010     2.4160 ca         1 2K0      -0.032000
     20 C5          -0.0110     0.0010     2.4010 ca         1 2K0      -0.112300
     21 C6          -0.7770     0.0030     3.6980 c3         1 2K0       0.284700
     22 O           -1.0190     1.3510     4.1070 oh         1 2K0      -0.583800
     23 C           -0.6950     0.0010     1.1960 ca         1 2K0      -0.058000
     24 O1           4.1610     1.0210     1.4850 o          1 2K0      -0.555100
     25 N1           7.2160    -3.1720     0.2890 nb         1 2K0      -0.568000
     26 N            4.7500    -3.3580     0.4410 na         1 2K0       0.289900
     27 C17         10.5950    -0.5000     0.5720 cd         1 2K0      -0.244300
     28 N3          11.3610     0.5970     0.7370 na         1 2K0       0.503400
     29 N2          10.5190     1.6780     1.0250 nd         1 2K0      -0.651800
     30 C18         12.8220     0.6480     0.6350 c3         1 2K0      -0.040000
     31 N4          15.2750    -0.4530    -0.4200 n7         1 2K0      -0.582200
     32 H1          -0.5400    -0.0000    -0.9390 ha         1 2K0       0.117000
     33 H2           2.7020    -2.7110     0.7280 h4         1 2K0       0.147000
     34 H3           6.6730     0.5480     1.0890 ha         1 2K0       0.135000
     35 H4           9.2490    -2.7730     0.2130 h4         1 2K0      -0.020900
     36 H5           8.4050     1.8550     1.2290 h4         1 2K0       0.013100
     37 H7          12.8450     1.7730    -1.1970 hc         1 2K0       0.032200
     38 H8          15.0410     0.9290    -1.9760 h1         1 2K0       0.009700
     39 H9          15.1590     1.6370    -0.3560 h1         1 2K0       0.009700
     40 H10         15.3430     0.2020     1.5680 h1         1 2K0       0.009700
     41 H11         15.3590    -1.5570     1.3570 h1         1 2K0       0.009700
     42 H12         13.1710    -0.7690     2.2130 hc         1 2K0       0.032200
     43 H13         13.0120    -1.4930     0.6030 hc         1 2K0       0.032200
     44 H14          1.8990     0.0010     3.3600 ha         1 2K0       0.117000
     45 H15         -1.7230    -0.5070     3.5600 h1         1 2K0      -0.012800
     46 H16         -0.1990    -0.5070     4.4590 h1         1 2K0      -0.012800
     47 H17         -1.4980     1.3520     4.9190 ho         1 2K0       0.390000
     48 H18         -1.7780     0.0020     1.1900 ha         1 2K0       0.109000
     49 H19          4.6100    -4.3310     0.2510 hn         1 2K0       0.117700
     50 H20         10.9480    -1.4980     0.3400 h4         1 2K0       0.154000
     51 H21         13.2010     1.4780     1.2180 h1         1 2K0       0.056700
     52 H22         16.2690    -0.4760    -0.5330 hn         1 2K0       0.256800
     53 H6          12.8200     0.0140    -1.4200 hc         1 2K0       0.032200
@<TRIPOS>BOND
     1     1     2 ar  
     2     1    23 ar  
     3     1    32 1   
     4     2     3 ar  
     5     2    18 1   
     6     3     4 1   
     7     3    19 ar  
     8     4     5 1   
     9     4    24 2   
    10     5     6 2   
    11     5     8 1   
    12     6    26 1   
    13     6    33 1   
    14     7     8 ar  
    15     7    25 ar  
    16     7    26 1   
    17     8     9 ar  
    18     9    10 ar  
    19     9    34 1   
    20    10    11 ar  
    21    10    12 1   
    22    11    25 ar  
    23    11    35 1   
    24    12    13 1   
    25    12    27 2   
    26    13    29 2   
    27    13    36 1   
    28    14    15 1   
    29    14    30 1   
    30    14    37 1   
    31    14    53 1   
    32    15    31 1   
    33    15    38 1   
    34    15    39 1   
    35    16    17 1   
    36    16    31 1   
    37    16    40 1   
    38    16    41 1   
    39    17    30 1   
    40    17    42 1   
    41    17    43 1   
    42    19    20 ar  
    43    19    44 1   
    44    20    21 1   
    45    20    23 ar  
    46    21    22 1   
    47    21    45 1   
    48    21    46 1   
    49    22    47 1   
    50    23    48 1   
    51    26    49 1   
    52    27    28 1   
    53    27    50 1   
    54    28    29 1   
    55    28    30 1   
    56    30    51 1   
    57    31    52 1   
@<TRIPOS>SUBSTRUCTURE
     1 2K0         1 TEMP              0 ****  ****    0 ROOT
