@<TRIPOS>MOLECULE
molecule
   53    57     1     0     0
SMALL
bcc


@<TRIPOS>ATOM
      1 C1           0.0000     0.0000     0.0000 ca         1 2K0      -0.130000
      2 C2           1.3820     0.0000     0.0000 ca         1 2K0       0.051400
      3 C3           2.0760     0.0000     1.2130 ca         1 2K0      -0.150600
      4 C7           3.5540    -0.0010     1.2220 c          1 2K0       0.620900
      5 C8           4.2900    -1.2320     0.9130 cc         1 2K0      -0.243400
      6 C9           3.7580    -2.4720     0.6980 cd         1 2K0      -0.032100
      7 C10          5.9780    -2.7330     0.4740 ca         1 2K0       0.443800
      8 C11          5.7500    -1.3780     0.7670 ca         1 2K0      -0.165100
      9 C12          6.8260    -0.5010     0.8630 ca         1 2K0      -0.046000
     10 C13          8.1060    -1.0130     0.6610 ca         1 2K0      -0.129300
     11 C14          8.2560    -2.3710     0.3710 ca         1 2K0       0.442200
     12 C15          9.2950    -0.1260     0.7480 cc         1 2K0      -0.262300
     13 C16          9.2850     1.2520     1.0360 cc         1 2K0       0.349200
     14 C19         13.2270     0.8270    -0.8310 c3         1 2K0      -0.094900
     15 C20         14.7530     0.8180    -0.9380 c3         1 2K0       0.159300
     16 C21         14.9380    -0.6260     0.9990 c3         1 2K0       0.159300
     17 C22         13.4170    -0.6590     1.1640 c3         1 2K0      -0.094900
     18 Cl           2.2520    -0.0030    -1.5020 cl         1 2K0      -0.090400
     19 C4           1.3670     0.0010     2.4160 ca         1 2K0      -0.067000
     20 C5          -0.0110     0.0010     2.4010 ca         1 2K0      -0.090300
     21 C6          -0.7770     0.0030     3.6980 c3         1 2K0       0.188700
     22 O           -1.0190     1.3510     4.1070 oh         1 2K0      -0.599800
     23 C           -0.6950     0.0010     1.1960 ca         1 2K0      -0.089000
     24 O1           4.1610     1.0210     1.4850 o          1 2K0      -0.514100
     25 N1           7.2160    -3.1720     0.2890 nb         1 2K0      -0.706000
     26 N            4.7500    -3.3580     0.4410 na         1 2K0      -0.264100
     27 C17         10.5950    -0.5000     0.5720 cd         1 2K0      -0.100300
     28 N3          11.3610     0.5970     0.7370 na         1 2K0       0.074400
     29 N2          10.5190     1.6780     1.0250 nd         1 2K0      -0.512800
     30 C18         12.8220     0.6480     0.6350 c3         1 2K0       0.081000
     31 N4          15.2750    -0.4530    -0.4200 n7         1 2K0      -0.821200
     32 H1          -0.5400    -0.0000    -0.9390 ha         1 2K0       0.148000
     33 H2           2.7020    -2.7110     0.7280 h4         1 2K0       0.177000
     34 H3           6.6730     0.5480     1.0890 ha         1 2K0       0.161000
     35 H4           9.2490    -2.7730     0.2130 h4         1 2K0       0.022100
     36 H5           8.4050     1.8550     1.2290 h4         1 2K0       0.056100
     37 H7          12.8450     1.7730    -1.1970 hc         1 2K0       0.061700
     38 H8          15.0410     0.9290    -1.9760 h1         1 2K0       0.037700
     39 H9          15.1590     1.6370    -0.3560 h1         1 2K0       0.037700
     40 H10         15.3430     0.2020     1.5680 h1         1 2K0       0.037700
     41 H11         15.3590    -1.5570     1.3570 h1         1 2K0       0.037700
     42 H12         13.1710    -0.7690     2.2130 hc         1 2K0       0.061700
     43 H13         13.0120    -1.4930     0.6030 hc         1 2K0       0.061700
     44 H14          1.8990     0.0010     3.3600 ha         1 2K0       0.150000
     45 H15         -1.7230    -0.5070     3.5600 h1         1 2K0       0.027200
     46 H16         -0.1990    -0.5070     4.4590 h1         1 2K0       0.027200
     47 H17         -1.4980     1.3520     4.9190 ho         1 2K0       0.404000
     48 H18         -1.7780     0.0020     1.1900 ha         1 2K0       0.141000
     49 H19          4.6100    -4.3310     0.2510 hn         1 2K0       0.306700
     50 H20         10.9480    -1.4980     0.3400 h4         1 2K0       0.172000
     51 H21         13.2010     1.4780     1.2180 h1         1 2K0       0.082700
     52 H22         16.2690    -0.4760    -0.5330 hn         1 2K0       0.358800
     53 H6          12.8200     0.0140    -1.4200 hc         1 2K0       0.061700
@<TRIPOS>BOND
     1    25    11 ar
     2    25     7 ar
     3    11    10 ar
     4    13    29 2
     5    13    12 1
     6    29    28 1
     7     7    26 1
     8     7     8 ar
     9    12    10 1
    10    12    27 2
    11    10     9 ar
    12    26     6 1
    13    28    27 1
    14    28    30 1
    15    17    30 1
    16    17    16 1
    17     8     9 ar
    18     8     5 1
    19     6     5 2
    20    14    30 1
    21    14    15 1
    22    31    16 1
    23    31    15 1
    24     5     4 1
    25     4    24 2
    26     4     3 1
    27    18     2 1
    28     3     2 ar
    29     3    19 ar
    30     2     1 ar
    31    19    20 ar
    32     1    23 ar
    33    20    23 ar
    34    20    21 1
    35    22    21 1
    36     1    32 1
    37     6    33 1
    38     9    34 1
    39    11    35 1
    40    13    36 1
    41    14    53 1
    42    14    37 1
    43    15    38 1
    44    15    39 1
    45    16    40 1
    46    16    41 1
    47    17    42 1
    48    17    43 1
    49    19    44 1
    50    21    45 1
    51    21    46 1
    52    22    47 1
    53    23    48 1
    54    26    49 1
    55    27    50 1
    56    30    51 1
    57    31    52 1
@<TRIPOS>SUBSTRUCTURE
     1 2K0         1 TEMP              0 ****  ****    0 ROOT
