@<TRIPOS>MOLECULE
2K1
   14    14     1     0     0
SMALL
bcc


@<TRIPOS>ATOM
      1 O           0.0410   -0.0020    0.1300 o         1 2K1     -0.809300
      2 C5          1.3010    0.0040    0.0680 c         1 2K1      0.827100
      3 O1          2.0790    0.0240    1.0560 o         1 2K1     -0.809300
      4 C4          1.8960   -0.0130   -1.3260 cc        1 2K1      0.249200
      5 C3          1.3170   -0.0370   -2.5880 cd        1 2K1     -0.305300
      6 C2          2.3940   -0.0430   -3.5460 cd        1 2K1     -0.272300
      7 O2          3.2840   -0.0040   -1.4490 os        1 2K1     -0.333800
      8 C1          3.5720   -0.0240   -2.8200 cc        1 2K1      0.177000
      9 C           4.9870   -0.0210   -3.1880 c3        1 2K1     -0.109400
     10 H2          0.2550   -0.0480   -2.8050 ha        1 2K1      0.153000
     11 H3          2.2880   -0.0610   -4.6250 ha        1 2K1      0.127000
     12 H4          5.6300    0.0590   -2.2760 hc        1 2K1      0.035033
     13 H5          5.2500   -0.9650   -3.7280 hc        1 2K1      0.035033
     14 H6          5.2100    0.8450   -3.8610 hc        1 2K1      0.035033
@<TRIPOS>BOND
     1    1    2 1
     2    2    3 1
     3    2    4 1
     4    4    5 2
     5    4    7 1
     6    5    6 1
     7    5   10 1
     8    6    8 2
     9    6   11 1
    10    7    8 1
    11    8    9 1
    12    9   12 1
    13    9   13 1
    14    9   14 1
@<TRIPOS>SUBSTRUCTURE
     1 2K1         1 TEMP              0 ****  ****    0 ROOT
