@<TRIPOS>MOLECULE
molecule
   73    81     1     0     0
SMALL
bcc


@<TRIPOS>ATOM
      1 OAD          0.0000     0.0000     0.0000 o          1 2K2      -0.670500
      2 CAX          1.2330     0.0000     0.0000 c          1 2K2       0.713100
      3 NAU          1.8940     0.0000     1.1410 ns         1 2K2      -0.568900
      4 CAS          3.3040    -0.0220     0.7750 c3         1 2K2       0.120300
      5 CBA          3.3360    -0.0710    -0.6230 ca         1 2K2      -0.058300
      6 CBB          2.0600    -0.0540    -1.0850 ca         1 2K2      -0.132600
      7 CBH          1.8660    -0.0940    -2.4360 cp         1 2K2       0.005000
      8 CBC          0.7790    -0.0940    -3.2360 cp         1 2K2      -0.089000
      9 CAO         -0.5370    -0.0560    -2.9870 ca         1 2K2      -0.056000
     10 CAI         -1.4820    -0.0700    -4.0220 ca         1 2K2      -0.173000
     11 CAK         -1.0510    -0.1240    -5.3330 ca         1 2K2      -0.082000
     12 CAQ          0.3180    -0.1680    -5.5570 ca         1 2K2      -0.191000
     13 CBE          1.1880    -0.1520    -4.5230 ca         1 2K2       0.001800
     14 NBM          5.2560     2.3080    -7.6410 n          1 2K2      -0.486800
     15 CBI          2.9430    -0.1510    -3.2570 ca         1 2K2      -0.009200
     16 CBJ          4.2030    -0.1620    -2.7730 ca         1 2K2       0.038800
     17 CBG          4.3990    -0.1280    -1.4560 cp         1 2K2      -0.081000
     18 CBD          5.7300    -0.1400    -1.2500 cp         1 2K2      -0.081000
     19 CAP          6.4480    -0.1090    -0.1200 ca         1 2K2      -0.082000
     20 CAJ          7.8370    -0.1100    -0.1340 ca         1 2K2      -0.159000
     21 CAL          8.4710    -0.1610    -1.3610 ca         1 2K2      -0.094000
     22 CAR          7.6910    -0.2170    -2.5080 ca         1 2K2      -0.179000
     23 CBF          6.3520    -0.1950    -2.4370 ca         1 2K2       0.010800
     24 NBN          2.5170    -0.1670    -4.5220 na         1 2K2      -0.061300
     25 CBQ          5.6070    -0.2580    -4.8710 c3         1 2K2       0.257500
     26 CBP          5.6650     1.1830    -5.4340 c3         1 2K2       0.100100
     27 OAV          4.9050     2.0860    -4.5840 os         1 2K2      -0.422600
     28 CAA          5.6560     2.8260    -3.6260 c3         1 2K2       0.126700
     29 CAC          6.8480    -1.0160    -5.3480 c3         1 2K2      -0.095100
     30 OAW          4.5080    -0.9910    -5.4190 os         1 2K2      -0.404600
     31 CBK          3.3030    -0.2950    -5.7760 c3         1 2K2       0.273800
     32 CAT          3.5430     0.9470    -6.6100 c3         1 2K2      -0.129400
     33 CAB          5.0470     3.6610    -7.0780 c3         1 2K2       0.091300
     34 CAY          5.5750     2.1290    -8.9540 c          1 2K2       0.680700
     35 OAE          5.7180     1.0080    -9.4560 o          1 2K2      -0.604100
     36 CAZ          5.6390     3.2310    -9.8010 ca         1 2K2      -0.146600
     37 CAM          6.8430     3.6490   -10.3550 ca         1 2K2      -0.093000
     38 CAG          6.8510     4.7340   -11.2300 ca         1 2K2      -0.132000
     39 CAF          5.6630     5.3920   -11.5580 ca         1 2K2      -0.110000
     40 CAH          4.4520     4.9650   -11.0160 ca         1 2K2      -0.132000
     41 CAN          4.4420     3.8740   -10.1490 ca         1 2K2      -0.093000
     42 NBO          5.4050    -0.2210    -3.3820 na         1 2K2      -0.062300
     43 CBL          5.0430     1.1220    -6.8000 c3         1 2K2       0.110700
     44 H1           3.7830    -0.9010     1.1890 h1         1 2K2       0.063700
     45 H2          -0.8780    -0.0140    -1.9600 ha         1 2K2       0.172000
     46 H3          -2.5410    -0.0350    -3.7950 ha         1 2K2       0.134000
     47 H4          -1.7550    -0.1360    -6.1560 ha         1 2K2       0.133000
     48 H5           0.6930    -0.2100    -6.5720 ha         1 2K2       0.119000
     49 H6           5.9310    -0.0700     0.8320 ha         1 2K2       0.125000
     50 H7           8.4060    -0.0650     0.7870 ha         1 2K2       0.136000
     51 H8           9.5520    -0.1640    -1.4260 ha         1 2K2       0.135000
     52 H9           8.1730    -0.2570    -3.4770 ha         1 2K2       0.125000
     53 H10          6.6950     1.5110    -5.5100 h1         1 2K2       0.070700
     54 H11          6.6750     2.4600    -3.6040 h1         1 2K2       0.038367
     55 H12          5.6550     3.8750    -3.8980 h1         1 2K2       0.038367
     56 H13          5.2090     2.7080    -2.6460 h1         1 2K2       0.038367
     57 H14          7.0170    -1.8720    -4.7070 hc         1 2K2       0.066033
     58 H15          7.7090    -0.3600    -5.3090 hc         1 2K2       0.066033
     59 H16          6.6960    -1.3520    -6.3670 hc         1 2K2       0.066033
     60 H17          2.7430    -0.9700    -6.4110 h2         1 2K2       0.094700
     61 H18          3.1390     1.8120    -6.0970 hc         1 2K2       0.082200
     62 H19          3.0660     0.8340    -7.5760 hc         1 2K2       0.082200
     63 H20          5.9560     3.9950    -6.5920 h1         1 2K2       0.050033
     64 H21          4.7900     4.3490    -7.8740 h1         1 2K2       0.050033
     65 H22          4.2410     3.6300    -6.3540 h1         1 2K2       0.050033
     66 H23          7.7670     3.1410   -10.1030 ha         1 2K2       0.140000
     67 H24          7.7870     5.0690   -11.6610 ha         1 2K2       0.137500
     68 H25          5.6830     6.2370   -12.2360 ha         1 2K2       0.135000
     69 H26          3.5270     5.4670   -11.2760 ha         1 2K2       0.137500
     70 H27          3.5050     3.5350    -9.7230 ha         1 2K2       0.140000
     71 H28          5.4300     0.2510    -7.3160 h1         1 2K2       0.107700
     72 H29          1.5120     0.1140     2.0590 hn         1 2K2       0.353500
     73 H30          3.7940     0.8780     1.1270 h1         1 2K2       0.063700
@<TRIPOS>BOND
     1    21    22 ar
     2    21    20 ar
     3    29    25 1
     4    22    23 ar
     5    20    19 ar
     6    23    18 ar
     7    23    42 1
     8    19    18 ar
     9    25    30 1
    10    25    42 1
    11    25    26 1
    12    30    31 1
    13    18    17 1
    14    42    16 1
    15    35    34 2
    16    26    43 1
    17    26    27 1
    18    17    16 ar
    19    17     5 ar
    20    16    15 ar
    21    43    14 1
    22    43    32 1
    23    31    24 1
    24    31    32 1
    25    34    14 1
    26    34    36 1
    27    37    36 ar
    28    37    38 ar
    29     5     4 1
    30     5     6 ar
    31    14    33 1
    32    15    24 1
    33    15     7 ar
    34     4     3 1
    35    24    13 1
    36    27    28 1
    37    36    41 ar
    38    38    39 ar
    39     6     7 ar
    40     6     2 1
    41     7     8 1
    42     3     2 1
    43    13     8 ar
    44    13    12 ar
    45     2     1 2
    46     8     9 ar
    47    41    40 ar
    48    12    11 ar
    49    39    40 ar
    50     9    10 ar
    51    11    10 ar
    52     4    44 1
    53     9    45 1
    54    10    46 1
    55    11    47 1
    56    12    48 1
    57    19    49 1
    58    20    50 1
    59    21    51 1
    60    22    52 1
    61    26    53 1
    62    28    54 1
    63    28    55 1
    64    28    56 1
    65    29    57 1
    66    29    58 1
    67    29    59 1
    68    31    60 1
    69    32    61 1
    70    32    62 1
    71    33    63 1
    72    33    64 1
    73    33    65 1
    74    37    66 1
    75    38    67 1
    76    39    68 1
    77    40    69 1
    78    41    70 1
    79    43    71 1
    80     3    72 1
    81     4    73 1
@<TRIPOS>SUBSTRUCTURE
     1 2K2         1 TEMP              0 ****  ****    0 ROOT
