@<TRIPOS>MOLECULE
molecule
   21    20     1     0     0
SMALL
bcc


@<TRIPOS>ATOM
      1 CAH          0.0000     0.0000     0.0000 c          1 2K3       0.888600
      2 OAC          1.3420     0.0000     0.0000 o          1 2K3      -0.834800
      3 OAE         -0.6040     0.0000     1.0460 o          1 2K3      -0.834800
      4 CAF         -0.7530     0.0070    -1.3060 c3         1 2K3      -0.282400
      5 CAI         -2.2350     0.0110    -1.0300 c          1 2K3       0.547100
      6 CAG         -3.2140     0.0190    -2.1760 c3         1 2K3      -0.191400
      7 CAJ         -4.6410     0.0230    -1.6260 c3         1 2K3      -0.064700
      8 CAB         -5.6330     0.1570    -2.7840 c3         1 2K3      -0.087600
      9 CAA         -4.9040    -1.2850    -0.8770 c3         1 2K3      -0.087600
     10 OAD         -2.6380     0.0110     0.1080 o          1 2K3      -0.476100
     11 HAF1        -0.4880     0.8920    -1.8710 hc         1 2K3       0.048700
     12 HAF2        -0.4940    -0.8770    -1.8770 hc         1 2K3       0.048700
     13 HAG1        -3.0640    -0.8640    -2.7850 hc         1 2K3       0.046700
     14 HAG2        -3.0570     0.9050    -2.7790 hc         1 2K3       0.046700
     15 HAJ         -4.7650     0.8590    -0.9480 hc         1 2K3       0.061700
     16 HAB1        -5.5390    -0.7000    -3.4400 hc         1 2K3       0.028700
     17 HAB2        -5.4200     1.0630    -3.3390 hc         1 2K3       0.028700
     18 HAB3        -6.6420     0.2020    -2.3920 hc         1 2K3       0.028700
     19 HAA1        -4.2710    -2.0660    -1.2810 hc         1 2K3       0.028700
     20 HAA2        -4.6840    -1.1490     0.1750 hc         1 2K3       0.028700
     21 HAA3        -5.9440    -1.5660    -0.9960 hc         1 2K3       0.028700
@<TRIPOS>BOND
     1     2     1 1   
     2     1     3 1   
     3     1     4 1   
     4     4     5 1   
     5     5    10 2   
     6     5     6 1   
     7     6     7 1   
     8     7     8 1   
     9     7     9 1   
    10     4    11 1   
    11     4    12 1   
    12     6    13 1   
    13     6    14 1   
    14     7    15 1   
    15     8    16 1   
    16     8    17 1   
    17     8    18 1   
    18     9    19 1   
    19     9    20 1   
    20     9    21 1   
@<TRIPOS>SUBSTRUCTURE
     1 2K3         1 TEMP              0 ****  ****    0 ROOT
