@<TRIPOS>MOLECULE
2K4
   16    17     1     0     0
SMALL
bcc


@<TRIPOS>ATOM
      1 C5         -0.0310    0.1600   -0.0300 ca        1 2K4     -0.240000
      2 C2          1.3670    0.0890   -0.0520 ca        1 2K4     -0.015200
      3 N6          2.3350    0.1420    0.9650 na        1 2K4     -0.023100
      4 N7          3.5760    0.0080    0.4660 nc        1 2K4     -0.519100
      5 C3          3.4940   -0.0550   -0.8750 cd        1 2K4      0.360800
      6 C1          2.0990   -0.0100   -1.2950 ca        1 2K4     -0.248900
      7 C4          1.4130   -0.0340   -2.5080 ca        1 2K4     -0.029000
      8 C8          0.0300    0.0330   -2.4970 ca        1 2K4     -0.183000
      9 C9         -0.6730    0.1280   -1.2690 ca        1 2K4      0.161100
     10 O10        -2.0430    0.1840   -1.3810 oh        1 2K4     -0.495100
     11 H5         -0.5920    0.2380    0.9090 ha        1 2K4      0.141000
     12 H6          2.1730   -0.0150    1.9310 hn        1 2K4      0.318700
     13 H3          4.3750   -0.1250   -1.5160 h4        1 2K4      0.054800
     14 H4          1.9630   -0.1020   -3.4580 ha        1 2K4      0.142000
     15 H8         -0.5480    0.0150   -3.4310 ha        1 2K4      0.154000
     16 H10        -2.4160    0.2620   -0.4910 ho        1 2K4      0.421000
@<TRIPOS>BOND
     1    1    2 ar  
     2    1    9 ar  
     3    1   11 1   
     4    2    3 1   
     5    2    6 ar  
     6    3    4 1   
     7    3   12 1   
     8    4    5 2   
     9    5    6 1   
    10    5   13 1   
    11    6    7 ar  
    12    7    8 ar  
    13    7   14 1   
    14    8    9 ar  
    15    8   15 1   
    16    9   10 1   
    17   10   16 1   
@<TRIPOS>SUBSTRUCTURE
     1 2K4         1 TEMP              0 ****  ****    0 ROOT
