@<TRIPOS>MOLECULE
molecule
   16    17     1     0     0
SMALL
bcc


@<TRIPOS>ATOM
      1 C5           0.0000     0.0000     0.0000 ca         1 2K4      -0.190000
      2 C2           1.3920     0.0000     0.0000 ca         1 2K4      -0.007200
      3 N6           2.3410     0.0000     0.9890 na         1 2K4      -0.053100
      4 N7           3.6110     0.0010     0.4050 nc         1 2K4      -0.499100
      5 C3           3.5060     0.0030    -0.8930 cd         1 2K4       0.380800
      6 C1           2.0860     0.0030    -1.2260 ca         1 2K4      -0.263900
      7 C4           1.3710     0.0040    -2.4300 ca         1 2K4      -0.042000
      8 C8           0.0070     0.0030    -2.4100 ca         1 2K4      -0.192000
      9 C9          -0.6840     0.0020    -1.1990 ca         1 2K4       0.150100
     10 O10         -2.0440     0.0020    -1.2000 oh         1 2K4      -0.521100
     11 H5          -0.5440    -0.0010     0.9370 ha         1 2K4       0.141000
     12 H6           2.1540    -0.0010     1.9720 hn         1 2K4       0.332700
     13 H3           4.3280     0.0040    -1.5990 h4         1 2K4       0.062800
     14 H4           1.8990     0.0050    -3.3760 ha         1 2K4       0.135000
     15 H8          -0.5440     0.0040    -3.3430 ha         1 2K4       0.143000
     16 H10         -2.3580     0.8890    -1.1540 ho         1 2K4       0.422000
@<TRIPOS>BOND
     1     1     2 ar
     2     1     9 ar
     3     2     3 1
     4     2     6 ar
     5     3     4 1
     6     4     5 2
     7     5     6 1
     8     6     7 ar
     9     7     8 ar
    10     8     9 ar
    11     9    10 1
    12     1    11 1
    13     3    12 1
    14     5    13 1
    15     7    14 1
    16     8    15 1
    17    10    16 1
@<TRIPOS>SUBSTRUCTURE
     1 2K4         1 TEMP              0 ****  ****    0 ROOT
