@<TRIPOS>MOLECULE
2K5
   57    60     1     0     0
SMALL
bcc


@<TRIPOS>ATOM
      1 C21        -0.0150    0.5050   -0.8490 c3        1 2K5      0.113700
      2 O2          1.3750    0.6220   -0.5720 os        1 2K5     -0.325900
      3 C16         1.7920    0.1970    0.6740 ca        1 2K5      0.160600
      4 C15         3.1700    0.3400    0.9090 ca        1 2K5     -0.189500
      5 C17         0.9380   -0.3380    1.6460 ca        1 2K5     -0.277000
      6 C18         1.4950   -0.7300    2.8700 ca        1 2K5      0.160600
      7 O1          0.7670   -1.2720    3.9110 os        1 2K5     -0.325900
      8 C20        -0.6310   -1.4160    3.6990 c3        1 2K5      0.113700
      9 C19         2.8690   -0.5950    3.1240 ca        1 2K5     -0.189500
     10 C14         3.7000   -0.0590    2.1370 ca        1 2K5     -0.022300
     11 C13         5.1580    0.0960    2.4070 c3        1 2K5     -0.039100
     12 C12         5.8670   -1.2500    2.3820 c3        1 2K5     -0.014100
     13 C11         7.2950   -1.1320    2.7350 cc        1 2K5     -0.104600
     14 C10         7.9990   -1.7200    3.7980 cd        1 2K5     -0.249300
     15 N5          8.2350   -0.3890    2.0050 na        1 2K5     -0.007600
     16 N6          9.4570   -0.4430    2.5200 nc        1 2K5     -0.550800
     17 C9          9.3700   -1.2650    3.6320 cd        1 2K5      0.503200
     18 N4         10.4700   -1.6560    4.4160 nh        1 2K5     -0.789600
     19 C8         10.4700   -1.4780    5.8110 ca        1 2K5      0.703200
     20 C7         11.7090   -1.6520    6.5100 ca        1 2K5     -0.458600
     21 C6         11.6670   -1.5520    7.9020 ca        1 2K5      0.481200
     22 N2         10.5500   -1.3100    8.6080 nb        1 2K5     -0.767000
     23 N3          9.3100   -1.2110    6.4810 nb        1 2K5     -0.786000
     24 C5          9.3870   -1.1650    7.8640 ca        1 2K5      0.886900
     25 N1          8.1590   -1.0230    8.5450 nh        1 2K5     -0.826900
     26 C4          8.1800   -0.5510    9.9130 c3        1 2K5      0.167500
     27 C3          6.8120   -0.3220   10.4370 cc        1 2K5      0.234000
     28 C2          5.6090   -0.9920   10.4050 cd        1 2K5     -0.341600
     29 O           6.6300    0.8620   11.1940 os        1 2K5     -0.118100
     30 N           5.3870    0.9330   11.6240 nc        1 2K5     -0.355300
     31 C1          4.7020   -0.1460   11.1880 cd        1 2K5      0.317600
     32 C           3.2830   -0.4530   11.4400 c3        1 2K5     -0.133400
     33 H1         -0.1070    0.9080   -1.8890 h1        1 2K5      0.044867
     34 H2         -0.3370   -0.5640   -0.8110 h1        1 2K5      0.044867
     35 H3         -0.6140    1.1210   -0.1340 h1        1 2K5      0.044867
     36 H4          3.8090    0.7670    0.1240 ha        1 2K5      0.150000
     37 H5         -0.1370   -0.4460    1.4550 ha        1 2K5      0.144000
     38 H6         -1.1090   -0.4220    3.5180 h1        1 2K5      0.044867
     39 H7         -0.9960   -1.8590    4.6600 h1        1 2K5      0.044867
     40 H8         -0.8320   -2.1090    2.8460 h1        1 2K5      0.044867
     41 H9          3.2750   -0.9090    4.0960 ha        1 2K5      0.150000
     42 H10         5.6180    0.7790    1.6450 hc        1 2K5      0.055700
     43 H11         5.3000    0.5740    3.4140 hc        1 2K5      0.055700
     44 H12         5.7600   -1.7120    1.3630 hc        1 2K5      0.066700
     45 H13         5.3770   -1.9440    3.1180 hc        1 2K5      0.066700
     46 H14         7.6170   -2.3590    4.5850 ha        1 2K5      0.181000
     47 H15         8.0640    0.1450    1.1860 hn        1 2K5      0.322700
     48 H16        11.3630   -1.4820    3.9980 hn        1 2K5      0.433800
     49 H17        12.6460   -1.8580    5.9830 ha        1 2K5      0.154000
     50 H18        12.5880   -1.6690    8.5050 h4        1 2K5      0.026100
     51 H19         7.4080   -0.6700    7.9870 hn        1 2K5      0.430800
     52 H20         8.7780    0.4030   10.0230 h1        1 2K5      0.083200
     53 H21         8.6770   -1.3410   10.5540 h1        1 2K5      0.083200
     54 H22         5.3570   -1.9330    9.9280 ha        1 2K5      0.181000
     55 H23         2.7370   -0.5170   10.4650 hc        1 2K5      0.059033
     56 H24         2.7920    0.3260   12.0740 hc        1 2K5      0.059033
     57 H25         3.2030   -1.4400   11.9600 hc        1 2K5      0.059033
@<TRIPOS>BOND
     1    1    2 1   
     2    1   33 1   
     3    1   34 1   
     4    1   35 1   
     5    2    3 1   
     6    3    4 ar  
     7    3    5 ar  
     8    4   10 ar  
     9    4   36 1   
    10    5    6 ar  
    11    5   37 1   
    12    6    7 1   
    13    6    9 ar  
    14    7    8 1   
    15    8   38 1   
    16    8   39 1   
    17    8   40 1   
    18    9   10 ar  
    19    9   41 1   
    20   10   11 1   
    21   11   12 1   
    22   11   42 1   
    23   11   43 1   
    24   12   13 1   
    25   12   44 1   
    26   12   45 1   
    27   13   14 2   
    28   13   15 1   
    29   14   17 1   
    30   14   46 1   
    31   15   16 1   
    32   15   47 1   
    33   16   17 2   
    34   17   18 1   
    35   18   19 1   
    36   18   48 1   
    37   19   20 ar  
    38   19   23 ar  
    39   20   21 ar  
    40   20   49 1   
    41   21   22 ar  
    42   21   50 1   
    43   22   24 ar  
    44   23   24 ar  
    45   24   25 1   
    46   25   26 1   
    47   25   51 1   
    48   26   27 1   
    49   26   52 1   
    50   26   53 1   
    51   27   28 2   
    52   27   29 1   
    53   28   31 1   
    54   28   54 1   
    55   29   30 1   
    56   30   31 2   
    57   31   32 1   
    58   32   55 1   
    59   32   56 1   
    60   32   57 1   
@<TRIPOS>SUBSTRUCTURE
     1 2K5         1 TEMP              0 ****  ****    0 ROOT
