@<TRIPOS>MOLECULE
molecule
   31    31     1     0     0
SMALL
bcc


@<TRIPOS>ATOM
      1 C1           0.0000     0.0000     0.0000 c3         1 2K6       0.122700
      2 O1           1.4280     0.0000     0.0000 os         1 2K6      -0.324900
      3 C2           2.0450     0.0000     1.2120 ca         1 2K6       0.148100
      4 C3           3.4310    -0.0000     1.2850 ca         1 2K6      -0.187500
      5 C4           4.0550     0.0010     2.5170 ca         1 2K6      -0.084000
      6 C5           1.2900     0.0070     2.3760 ca         1 2K6      -0.187500
      7 C6           1.9200     0.0070     3.6050 ca         1 2K6      -0.084000
      8 C7           3.3010     0.0010     3.6760 ca         1 2K6      -0.157300
      9 C8           3.9850     0.0010     5.0190 c3         1 2K6       0.021600
     10 C9           3.5740     1.2500     5.8010 c3         1 2K6      -0.235400
     11 C10          4.3500     1.3130     7.0910 c          1 2K6       0.599100
     12 C11          4.1290     2.4560     8.0480 c3         1 2K6      -0.196100
     13 C12          3.5730    -1.2490     5.8010 c3         1 2K6      -0.216300
     14 C13          4.0730    -2.4470     5.1080 c1         1 2K6       0.315700
     15 N1           4.4470    -3.3690     4.5590 n1         1 2K6      -0.407800
     16 H1          -0.3610     1.0210     0.0150 h1         1 2K6       0.044033
     17 H2          -0.3610    -0.4980    -0.8920 h1         1 2K6       0.044033
     18 H3          -0.3610    -0.5240     0.8770 h1         1 2K6       0.044033
     19 H4           4.0210    -0.0000     0.3770 ha         1 2K6       0.144500
     20 H5           5.1370     0.0010     2.5750 ha         1 2K6       0.134000
     21 H6           0.2090     0.0120     2.3200 ha         1 2K6       0.144500
     22 H7           1.3320     0.0120     4.5150 ha         1 2K6       0.134000
     23 H8           5.0590     0.0000     4.8770 hc         1 2K6       0.093700
     24 H9           3.1760     0.9580     6.7650 hc         1 2K6       0.089700
     25 H10          2.8160     1.7910     5.2460 hc         1 2K6       0.089700
     26 H13          3.0700     2.6780     8.1070 hc         1 2K6       0.061700
     27 H14          4.4950     2.1810     9.0300 hc         1 2K6       0.061700
     28 H15          4.6620     3.3310     7.6960 hc         1 2K6       0.061700
     29 H16          2.7140    -1.0200     6.4210 hc         1 2K6       0.135200
     30 H17          3.3170    -2.0410     5.1080 hc         1 2K6       0.135200
     31 O2           5.1490     0.4480     7.3580 o          1 2K6      -0.542100
@<TRIPOS>BOND
     1    10    11 1
     2    10     9 1
     3    11    12 1
     4    15    14 3
     5    14    13 1
     6    13     9 1
     7     9     8 1
     8     8     5 ar
     9     8     7 ar
    10     5     4 ar
    11     7     6 ar
    12     4     3 ar
    13     6     3 ar
    14     3     2 1
    15     2     1 1
    16     1    16 1
    17     1    17 1
    18     1    18 1
    19     4    19 1
    20     5    20 1
    21     6    21 1
    22     7    22 1
    23     9    23 1
    24    10    24 1
    25    10    25 1
    26    12    26 1
    27    12    27 1
    28    12    28 1
    29    13    29 1
    30    13    30 1
    31    11    31 2
@<TRIPOS>SUBSTRUCTURE
     1 2K6         1 TEMP              0 ****  ****    0 ROOT
