@<TRIPOS>MOLECULE
2K6
   31    33     1     0     0
SMALL
bcc


@<TRIPOS>ATOM
      1 C1           0.0000     0.0000     0.0000 c3         1 2K6       0.044000
      2 O1           1.4280     0.0000     0.0000 os         1 2K6      -0.187000
      3 C2           2.0450     0.0000     1.2120 ca         1 2K6       0.116000
      4 C3           3.4310    -0.0000     1.2850 ca         1 2K6      -0.173000
      5 C4           4.0550     0.0010     2.5170 ca         1 2K6      -0.050000
      6 C5           1.2900     0.0070     2.3760 ca         1 2K6      -0.173000
      7 C6           1.9200     0.0070     3.6050 ca         1 2K6      -0.050000
      8 C7           3.3010     0.0010     3.6760 ca         1 2K6      -0.167000
      9 C8           3.9850     0.0010     5.0190 c3         1 2K6       0.010000
     10 C9           3.5740     1.2500     5.8010 c3         1 2K6      -0.231000
     11 C10          4.3500     1.3130     7.0910 c3         1 2K6       0.316000
     12 C11          4.1290     2.4560     8.0480 c3         1 2K6      -0.161000
     13 C12          3.5730    -1.2490     5.8010 c3         1 2K6      -0.136000
     14 C13          4.0730    -2.4470     5.1080 c2         1 2K6      -0.013000
     15 N1           4.4470    -3.3690     4.5590 n1         1 2K6      -0.129000
     16 H1          -0.3610     1.0210     0.0150 h1         1 2K6       0.040667
     17 H2          -0.3610    -0.4980    -0.8920 h1         1 2K6       0.040667
     18 H3          -0.3610    -0.5240     0.8770 h1         1 2K6       0.040667
     19 H4           4.0210    -0.0000     0.3770 ha         1 2K6       0.124500
     20 H5           5.1370     0.0010     2.5750 ha         1 2K6       0.105500
     21 H6           0.2090     0.0120     2.3200 ha         1 2K6       0.124500
     22 H7           1.3320     0.0120     4.5150 ha         1 2K6       0.105500
     23 H8           5.0590     0.0000     4.8770 hc         1 2K6       0.107000
     24 H9           3.1760     0.9580     6.7650 DU         1 2K6       0.063000
     25 H10          2.8160     1.7910     5.2460 hc         1 2K6       0.146000
     26 H13          3.0700     2.6780     8.1070 hc         1 2K6       0.064667
     27 H14          4.4950     2.1810     9.0300 hc         1 2K6       0.064667
     28 H15          4.6620     3.3310     7.6960 hc         1 2K6       0.064667
     29 H16          2.7140    -1.0200     6.4210 hc         1 2K6       0.148000
     30 H17          3.3170    -2.0410     5.1080 DU         1 2K6       0.089000
     31 O2           5.1490     0.4480     7.3580 o          1 2K6      -0.345000
@<TRIPOS>BOND
     1     1     2 1   
     2     1    16 1   
     3     1    17 1   
     4     1    18 1   
     5     2     3 1   
     6     3     4 1   
     7     3     6 1   
     8     4     5 1   
     9     4    19 1   
    10     5     8 1   
    11     5    20 1   
    12     6     7 1   
    13     6    21 1   
    14     7     8 1   
    15     7    22 1   
    16     8     9 1   
    17     9    10 1   
    18     9    13 1   
    19     9    23 1   
    20    10    11 1   
    21    10    24 1   
    22    10    25 1   
    23    11    12 1   
    24    11    24 1   
    25    11    31 1   
    26    12    26 1   
    27    12    27 1   
    28    12    28 1   
    29    13    14 1   
    30    13    29 1   
    31    13    30 1   
    32    14    15 1   
    33    14    30 1   
@<TRIPOS>SUBSTRUCTURE
     1 2K6         1 TEMP              0 ****  ****    0 ROOT
