@<TRIPOS>MOLECULE
2K7
   57    60     1     0     0
SMALL
bcc


@<TRIPOS>ATOM
      1 C1          0.6580   -1.5220   -0.6860 cc        1 2K7      0.321600
      2 C2          2.0550   -1.8140   -0.3460 cc        1 2K7     -0.339600
      3 C3          2.3590   -0.9130    0.6500 cd        1 2K7      0.237000
      4 N6          6.0170    6.4290    2.4310 na        1 2K7     -0.037600
      5 C7          6.9710    2.0500    3.9930 ca        1 2K7     -0.466600
      6 C8          6.0220    2.9600    3.4290 ca        1 2K7      0.705200
      7 C9          5.4150    5.3090    3.0850 cc        1 2K7      0.081300
      8 C10         4.0290    5.4350    2.8650 cd        1 2K7     -0.251300
      9 C11         3.8780    6.6760    2.1330 cd        1 2K7      0.315600
     10 C12         2.5850    7.2160    1.6550 c3        1 2K7     -0.100700
     11 C13         2.3650    8.6550    2.0900 c3        1 2K7     -0.031100
     12 C14         1.0170    9.1440    1.6870 ca        1 2K7     -0.078300
     13 C15         0.8730   10.0480    0.6360 ca        1 2K7     -0.125000
     14 C16        -0.3890   10.5160    0.2650 ca        1 2K7     -0.178000
     15 C19        -0.1180    8.6980    2.3810 ca        1 2K7     -0.178000
     16 C20        -2.4430    7.8370    3.6890 c3        1 2K7      0.110700
     17 C21        -2.9690   11.3900   -0.4060 c3        1 2K7      0.110700
     18 C17        -1.5230   10.0790    0.9480 ca        1 2K7      0.099100
     19 C18        -1.3840    9.1560    2.0210 ca        1 2K7      0.103100
     20 O1         -2.5630    8.7870    2.6370 os        1 2K7     -0.305900
     21 N5          5.0970    7.2570    1.9380 nc        1 2K7     -0.513800
     22 N4          6.1250    4.3220    3.7730 nh        1 2K7     -0.698300
     23 C6          6.7790    0.6920    3.7170 ca        1 2K7      0.486200
     24 N2          5.7860    0.2110    2.9540 nb        1 2K7     -0.771000
     25 N3          4.9960    2.5280    2.6420 nb        1 2K7     -0.778000
     26 C5          4.9230    1.1600    2.4140 ca        1 2K7      0.895900
     27 N1          3.9350    0.7370    1.5100 nh        1 2K7     -0.829900
     28 C4          3.5490   -0.6550    1.4940 c3        1 2K7      0.178500
     29 O           1.2040   -0.1250    0.8890 os        1 2K7     -0.126100
     30 N           0.2280   -0.5040    0.0890 nd        1 2K7     -0.351300
     31 C          -0.1170   -2.2390   -1.7140 c3        1 2K7     -0.134400
     32 H1          2.6780   -2.5750   -0.8030 ha        1 2K7      0.178000
     33 H2          6.9300    6.7800    2.6070 hn        1 2K7      0.305700
     34 H3          7.7990    2.3880    4.6230 ha        1 2K7      0.152000
     35 H4          3.2460    4.7460    3.1580 ha        1 2K7      0.179000
     36 H5          2.5480    7.1540    0.5330 hc        1 2K7      0.058700
     37 H6          1.7570    6.5710    2.0550 hc        1 2K7      0.058700
     38 H7          3.1600    9.3080    1.6400 hc        1 2K7      0.056200
     39 H8          2.4680    8.7260    3.2060 hc        1 2K7      0.056200
     40 H9          1.7600   10.4010    0.0890 ha        1 2K7      0.135000
     41 H10        -0.4770   11.2290   -0.5670 ha        1 2K7      0.138000
     42 H11         0.0050    7.9860    3.2090 ha        1 2K7      0.140000
     43 H12        -3.5020    7.6790    4.0170 h1        1 2K7      0.043033
     44 H13        -1.8290    8.2500    4.5270 h1        1 2K7      0.043033
     45 H14        -2.0000    6.8820    3.3140 h1        1 2K7      0.043033
     46 H15        -2.6020   10.9430   -1.3620 h1        1 2K7      0.042700
     47 H16        -2.4330   12.3460   -0.1910 h1        1 2K7      0.042700
     48 H17        -4.0750   11.5580   -0.4480 h1        1 2K7      0.042700
     49 H18         7.0280    4.5840    4.1100 hn        1 2K7      0.428800
     50 H19         7.4640   -0.0700    4.1350 h4        1 2K7      0.027100
     51 H20         3.2050    1.3940    1.3220 hn        1 2K7      0.447800
     52 H21         4.4120   -1.2610    1.0870 h1        1 2K7      0.077700
     53 H22         3.3230   -1.0330    2.5380 h1        1 2K7      0.077700
     54 H23        -1.1630   -1.8520   -1.7960 hc        1 2K7      0.060033
     55 H24         0.3860   -2.1240   -2.7070 hc        1 2K7      0.060033
     56 H25        -0.1580   -3.3280   -1.4580 hc        1 2K7      0.060033
     57 O2         -2.8170   10.4730    0.6710 os        1 2K7     -0.304900
@<TRIPOS>BOND
     1    1    2 1   
     2    1   30 2   
     3    1   31 1   
     4    2    3 2   
     5    2   32 1   
     6    3   28 1   
     7    3   29 1   
     8    4    7 1   
     9    4   21 1   
    10    4   33 1   
    11    5    6 ar  
    12    5   23 ar  
    13    5   34 1   
    14    6   22 1   
    15    6   25 ar  
    16    7    8 2   
    17    7   22 1   
    18    8    9 1   
    19    8   35 1   
    20    9   10 1   
    21    9   21 2   
    22   10   11 1   
    23   10   36 1   
    24   10   37 1   
    25   11   12 1   
    26   11   38 1   
    27   11   39 1   
    28   12   13 ar  
    29   12   15 ar  
    30   13   14 ar  
    31   13   40 1   
    32   14   18 ar  
    33   14   41 1   
    34   15   19 ar  
    35   15   42 1   
    36   16   20 1   
    37   16   43 1   
    38   16   44 1   
    39   16   45 1   
    40   17   46 1   
    41   17   47 1   
    42   17   48 1   
    43   17   57 1   
    44   18   19 ar  
    45   18   57 1   
    46   19   20 1   
    47   22   49 1   
    48   23   24 ar  
    49   23   50 1   
    50   24   26 ar  
    51   25   26 ar  
    52   26   27 1   
    53   27   28 1   
    54   27   51 1   
    55   28   52 1   
    56   28   53 1   
    57   29   30 1   
    58   31   54 1   
    59   31   55 1   
    60   31   56 1   
@<TRIPOS>SUBSTRUCTURE
     1 2K7         1 TEMP              0 ****  ****    0 ROOT
