@<TRIPOS>MOLECULE
molecule
   24    25     1     0     0
SMALL
bcc


@<TRIPOS>ATOM
      1 O6A          0.0000     0.0000     0.0000 o          1 2K8      -0.796800
      2 C6A          1.3420     0.0000     0.0000 c          1 2K8       0.879600
      3 O6B          1.9460     0.0000     1.0460 o          1 2K8      -0.796800
      4 C6           2.0950     0.0000    -1.3050 c3         1 2K8       0.087500
      5 N5           3.4720    -0.4730    -1.0860 nu         1 2K8      -0.668000
      6 C4A          4.3970     0.4050    -0.4780 cc         1 2K8       0.099800
      7 C7           2.1670     1.4300    -1.8620 c3         1 2K8       0.241800
      8 N8           2.9330     2.2570    -0.9180 nu         1 2K8      -0.784000
      9 C8A          4.1210     1.7630    -0.4010 cc         1 2K8       0.312600
     10 N1           5.0050     2.5850     0.1740 nc         1 2K8      -0.572300
     11 C2           6.1340     2.1270     0.6710 cd         1 2K8       0.261800
     12 N2           7.0150     3.0040     1.2530 nz         1 2K8      -0.685600
     13 N3           6.4500     0.8040     0.6230 ns         1 2K8      -0.439400
     14 C4           5.5980    -0.0760     0.0530 c          1 2K8       0.693700
     15 O4           5.8710    -1.2660     0.0030 o          1 2K8      -0.628500
     16 H2           1.5990    -0.6440    -2.0200 h1         1 2K8       0.088700
     17 H3           3.7470    -1.3950    -1.3610 hn         1 2K8       0.464800
     18 H4           1.1660     1.8300    -1.9670 h1         1 2K8       0.060200
     19 H5           2.6650     1.4210    -2.8240 h1         1 2K8       0.060200
     20 H6           2.6020     3.1630    -0.6530 hn         1 2K8       0.453800
     21 H7           6.6520     3.9340     1.1870 hn         1 2K8       0.448133
     22 H8           7.1390     2.7620     2.2160 hn         1 2K8       0.448133
     23 H9           7.3150     0.4830     1.0090 hn         1 2K8       0.324500
     24 H23          7.8960     2.9550     0.7800 hn         1 2K8       0.448133
@<TRIPOS>BOND
     1     7     8 1
     2     7     4 1
     3     8     9 1
     4     4     2 1
     5     4     5 1
     6     9    10 1
     7     9     6 2
     8     3     2 1
     9     2     1 1
    10    10    11 2
    11     5     6 1
    12     6    14 1
    13    11    12 1
    14    11    13 1
    15    14    13 1
    16    14    15 2
    17     4    16 1
    18     5    17 1
    19     7    18 1
    20     7    19 1
    21     8    20 1
    22    12    21 1
    23    12    22 1
    24    13    23 1
    25    24    12 1
@<TRIPOS>SUBSTRUCTURE
     1 2K8         1 TEMP              0 ****  ****    0 ROOT
