@<TRIPOS>MOLECULE
2K8
   24    25     1     0     0
SMALL
bcc


@<TRIPOS>ATOM
      1 O6A          0.0000     0.0000     0.0000 o          1 2K8      -0.841300
      2 C6A          1.3420     0.0000     0.0000 c          1 2K8       0.961600
      3 O6B          1.9460     0.0000     1.0460 o          1 2K8      -0.841300
      4 C6           2.0950     0.0000    -1.3050 c3         1 2K8      -0.045500
      5 N5           3.4720    -0.4730    -1.0860 nu         1 2K8      -0.133000
      6 C4A          4.3970     0.4050    -0.4780 cc         1 2K8      -0.062200
      7 C7           2.1670     1.4300    -1.8620 c3         1 2K8       0.174800
      8 N8           2.9330     2.2570    -0.9180 nu         1 2K8      -0.367000
      9 C8A          4.1210     1.7630    -0.4010 cd         1 2K8       0.111600
     10 N1           5.0050     2.5850     0.1740 nd         1 2K8      -0.412300
     11 C2           6.1340     2.1270     0.6710 cc         1 2K8      -0.226200
     12 N2           7.0150     3.0040     1.2530 nz         1 2K8       0.289400
     13 N3           6.4500     0.8040     0.6230 ns         1 2K8       0.056600
     14 C4           5.5980    -0.0760     0.0530 c          1 2K8       0.594700
     15 O4           5.8710    -1.2660     0.0030 o          1 2K8      -0.685500
     16 H2           1.5990    -0.6440    -2.0200 h1         1 2K8       0.065700
     17 H3           3.7470    -1.3950    -1.3610 hn         1 2K8       0.297800
     18 H4           1.1660     1.8300    -1.9670 h1         1 2K8       0.030200
     19 H5           2.6650     1.4210    -2.8240 h1         1 2K8       0.030200
     20 H6           2.6020     3.1630    -0.6530 hn         1 2K8       0.299800
     21 H7           6.6520     3.9340     1.1870 hn         1 2K8       0.179800
     22 H8           7.1390     2.7620     2.2160 hn         1 2K8       0.179800
     23 H9           7.3150     0.4830     1.0090 hn         1 2K8       0.161500
     24 H23          7.8960     2.9550     0.7800 hn         1 2K8       0.179800
@<TRIPOS>BOND
     1     1     2 1   
     2     2     3 1   
     3     2     4 1   
     4     4     5 1   
     5     4     7 1   
     6     4    16 1   
     7     5     6 1   
     8     5    17 1   
     9     6     9 2   
    10     6    14 1   
    11     7     8 1   
    12     7    18 1   
    13     7    19 1   
    14     8     9 1   
    15     8    20 1   
    16     9    10 1   
    17    10    11 2   
    18    11    12 1   
    19    11    13 1   
    20    12    21 1   
    21    12    22 1   
    22    12    24 1   
    23    13    14 1   
    24    13    23 1   
    25    14    15 2   
@<TRIPOS>SUBSTRUCTURE
     1 2K8         1 TEMP              0 ****  ****    0 ROOT
