@<TRIPOS>MOLECULE
2K9
   34    38     1     0     0
SMALL
bcc


@<TRIPOS>ATOM
      1 O1           0.0000     0.0000     0.0000 o          1 2K9      -0.482100
      2 C9           1.2190     0.0000     0.0000 c          1 2K9       0.621000
      3 C5           1.9500     0.0000     1.2750 cc         1 2K9       0.075000
      4 N3           1.5540     0.0000     2.5330 nd         1 2K9      -0.508000
      5 C10          2.6210     0.0010     3.3290 cd         1 2K9       0.315200
      6 C6           3.7360     0.0010     2.5520 cc         1 2K9      -0.422600
      7 N1           3.3190    -0.0000     1.2610 na         1 2K9       0.464900
      8 C1           3.9860     0.0000     0.0350 cc         1 2K9      -0.374700
      9 N2           1.8870    -0.0070    -1.1680 nd         1 2K9      -0.495100
     10 C2           3.1990     0.0000    -1.2070 cc         1 2K9       0.551200
     11 C4           4.1750    -0.0050    -2.3300 ca         1 2K9      -0.151900
     12 C8           4.0370    -0.0170    -3.7030 ca         1 2K9      -0.031000
     13 C12          5.1680    -0.0170    -4.5200 ca         1 2K9      -0.092000
     14 C14          6.4190    -0.0060    -3.9750 ca         1 2K9      -0.080000
     15 C11          6.5860     0.0070    -2.5820 cp         1 2K9       0.021000
     16 C7           5.4590     0.0090    -1.7490 ca         1 2K9      -0.085800
     17 C3           5.3030    -0.0000    -0.2870 cd         1 2K9       0.019800
     18 C13          7.9440     0.0180    -1.9950 cp         1 2K9      -0.055000
     19 C16          8.2740     0.9500    -1.0090 ca         1 2K9      -0.088500
     20 C18          9.5420     0.9560    -0.4660 ca         1 2K9      -0.100000
     21 C19         10.4870     0.0410    -0.8980 ca         1 2K9      -0.092000
     22 C17         10.1660    -0.8850    -1.8750 ca         1 2K9      -0.100000
     23 C15          8.9000    -0.9040    -2.4220 ca         1 2K9      -0.088500
     24 H1           2.6040     0.0010     4.4120 h4         1 2K9       0.010100
     25 H2           4.7620     0.0010     2.8980 h4         1 2K9       0.157000
     26 H3           3.0500    -0.0260    -4.1480 ha         1 2K9       0.119000
     27 H4           5.0520    -0.0280    -5.5970 ha         1 2K9       0.111000
     28 H5           7.2880    -0.0070    -4.6220 ha         1 2K9       0.115000
     29 H6           6.0110    -0.5390     0.3300 ha         1 2K9       0.129000
     30 H7           7.5360     1.6670    -0.6700 ha         1 2K9       0.110500
     31 H9           9.8000     1.6780     0.2990 ha         1 2K9       0.106000
     32 H10         11.4820     0.0510    -0.4700 ha         1 2K9       0.105000
     33 H11         10.9090    -1.5990    -2.2080 ha         1 2K9       0.106000
     34 H13          8.6510    -1.6290    -3.1870 ha         1 2K9       0.110500
@<TRIPOS>BOND
     1     1     2 2   
     2     2     3 1   
     3     2     9 1   
     4     3     4 2   
     5     3     7 1   
     6     4     5 1   
     7     5     6 2   
     8     5    24 1   
     9     6     7 1   
    10     6    25 1   
    11     7     8 1   
    12     8    10 1   
    13     8    17 2   
    14     9    10 2   
    15    10    11 1   
    16    11    12 ar  
    17    11    16 ar  
    18    12    13 ar  
    19    12    26 1   
    20    13    14 ar  
    21    13    27 1   
    22    14    15 ar  
    23    14    28 1   
    24    15    16 ar  
    25    15    18 1   
    26    16    17 1   
    27    17    29 1   
    28    18    19 ar  
    29    18    23 ar  
    30    19    20 ar  
    31    19    30 1   
    32    20    21 ar  
    33    20    31 1   
    34    21    22 ar  
    35    21    32 1   
    36    22    23 ar  
    37    22    33 1   
    38    23    34 1   
@<TRIPOS>SUBSTRUCTURE
     1 2K9         1 TEMP              0 ****  ****    0 ROOT
