@<TRIPOS>MOLECULE
molecule
   34    38     1     0     0
SMALL
bcc


@<TRIPOS>ATOM
      1 O1           0.0000     0.0000     0.0000 o          1 2K9      -0.447100
      2 C9           1.2190     0.0000     0.0000 c          1 2K9       0.635000
      3 C5           1.9500     0.0000     1.2750 cc         1 2K9       0.304000
      4 N3           1.5540     0.0000     2.5330 nc         1 2K9      -0.606000
      5 C10          2.6210     0.0010     3.3290 cc         1 2K9       0.313200
      6 C6           3.7360     0.0010     2.5520 cd         1 2K9      -0.240600
      7 N1           3.3190    -0.0000     1.2610 na         1 2K9      -0.092100
      8 C1           3.9860     0.0000     0.0350 cd         1 2K9      -0.175700
      9 N2           1.8870    -0.0070    -1.1680 nc         1 2K9      -0.620100
     10 C2           3.1990     0.0000    -1.2070 cd         1 2K9       0.607200
     11 C4           4.1750    -0.0050    -2.3300 ca         1 2K9      -0.154900
     12 C8           4.0370    -0.0170    -3.7030 ca         1 2K9      -0.054000
     13 C12          5.1680    -0.0170    -4.5200 ca         1 2K9      -0.126000
     14 C14          6.4190    -0.0060    -3.9750 ca         1 2K9      -0.094000
     15 C11          6.5860     0.0070    -2.5820 cp         1 2K9       0.002000
     16 C7           5.4590     0.0090    -1.7490 ca         1 2K9      -0.060800
     17 C3           5.3030    -0.0000    -0.2870 cc         1 2K9      -0.056200
     18 C13          7.9440     0.0180    -1.9950 cp         1 2K9      -0.057000
     19 C16          8.2740     0.9500    -1.0090 ca         1 2K9      -0.111500
     20 C18          9.5420     0.9560    -0.4660 ca         1 2K9      -0.128000
     21 C19         10.4870     0.0410    -0.8980 ca         1 2K9      -0.119000
     22 C17         10.1660    -0.8850    -1.8750 ca         1 2K9      -0.128000
     23 C15          8.9000    -0.9040    -2.4220 ca         1 2K9      -0.111500
     24 H1           2.6040     0.0010     4.4120 h4         1 2K9       0.053100
     25 H2           4.7620     0.0010     2.8980 h4         1 2K9       0.181000
     26 H3           3.0500    -0.0260    -4.1480 ha         1 2K9       0.155000
     27 H4           5.0520    -0.0280    -5.5970 ha         1 2K9       0.145000
     28 H5           7.2880    -0.0070    -4.6220 ha         1 2K9       0.146000
     29 H6           6.0110    -0.5390     0.3300 ha         1 2K9       0.165000
     30 H7           7.5360     1.6670    -0.6700 ha         1 2K9       0.137000
     31 H9           9.8000     1.6780     0.2990 ha         1 2K9       0.135000
     32 H10         11.4820     0.0510    -0.4700 ha         1 2K9       0.133000
     33 H11         10.9090    -1.5990    -2.2080 ha         1 2K9       0.135000
     34 H13          8.6510    -1.6290    -3.1870 ha         1 2K9       0.137000
@<TRIPOS>BOND
     1     1     2 2
     2     4     5 1
     3     4     3 2
     4     2     3 1
     5     2     9 1
     6     5     6 2
     7     3     7 1
     8     9    10 2
     9     7     6 1
    10     7     8 1
    11    10     8 1
    12    10    11 1
    13     8    17 2
    14    11    12 ar
    15    11    16 ar
    16    12    13 ar
    17    17    16 1
    18    16    15 ar
    19    13    14 ar
    20    15    14 ar
    21    15    18 1
    22    18    23 ar
    23    18    19 ar
    24    23    22 ar
    25    19    20 ar
    26    22    21 ar
    27    20    21 ar
    28     5    24 1
    29     6    25 1
    30    12    26 1
    31    13    27 1
    32    14    28 1
    33    17    29 1
    34    19    30 1
    35    20    31 1
    36    21    32 1
    37    22    33 1
    38    23    34 1
@<TRIPOS>SUBSTRUCTURE
     1 2K9         1 TEMP              0 ****  ****    0 ROOT
