@<TRIPOS>MOLECULE
2KA
   20    21     1     0     0
SMALL
bcc


@<TRIPOS>ATOM
      1 O7B          0.0000     0.0000     0.0000 o          1 2KA      -0.836800
      2 C7A          1.3480     0.0000     0.0000 c          1 2KA       0.963200
      3 O7A          1.9560     0.0000     1.0520 o          1 2KA      -0.836800
      4 C7           2.0840    -0.0020    -1.2720 cc         1 2KA      -0.038600
      5 C5           3.5450    -0.0030    -1.4480 cc         1 2KA      -0.161600
      6 C8           1.5490    -0.0080    -2.5280 cd         1 2KA      -0.229300
      7 N9           2.5490    -0.0120    -3.4460 na         1 2KA       0.439900
      8 C4           3.7700    -0.0040    -2.8290 cd         1 2KA      -0.205900
      9 N3           5.0310    -0.0040    -3.2840 nd         1 2KA      -0.342100
     10 C2           6.0530     0.0050    -2.4590 cc         1 2KA      -0.096200
     11 N2           7.3250     0.0050    -2.9740 nz         1 2KA       0.247400
     12 N1           5.8900     0.0160    -1.1050 ns         1 2KA      -0.040400
     13 C6           4.6480    -0.0020    -0.5720 c          1 2KA       0.618100
     14 O6           4.4860    -0.0000     0.6370 o          1 2KA      -0.529500
     15 H2           0.4900    -0.0090    -2.7560 h4         1 2KA       0.183000
     16 H3           2.4120    -0.0170    -4.4380 hn         1 2KA       0.108700
     17 H4           7.8080     0.8270    -2.6710 hn         1 2KA       0.196467
     18 H5           7.2790    -0.0060    -3.9740 hn         1 2KA       0.196467
     19 H6           6.6920     0.0240    -0.5060 hn         1 2KA       0.169500
     20 H23          7.8140    -0.8070    -2.6540 hn         1 2KA       0.196467
@<TRIPOS>BOND
     1     1     2 1   
     2     2     3 1   
     3     2     4 1   
     4     4     5 1   
     5     4     6 2   
     6     5     8 2   
     7     5    13 1   
     8     6     7 1   
     9     6    15 1   
    10     7     8 1   
    11     7    16 1   
    12     8     9 1   
    13     9    10 2   
    14    10    11 1   
    15    10    12 1   
    16    11    17 1   
    17    11    18 1   
    18    11    20 1   
    19    12    13 1   
    20    12    19 1   
    21    13    14 2   
@<TRIPOS>SUBSTRUCTURE
     1 2KA         1 TEMP              0 ****  ****    0 ROOT
