@<TRIPOS>MOLECULE
molecule
   20    21     1     0     0
SMALL
bcc


@<TRIPOS>ATOM
      1 O7B          0.0000     0.0000     0.0000 o          1 2KA      -0.790800
      2 C7A          1.3480     0.0000     0.0000 c          1 2KA       0.881200
      3 O7A          1.9560     0.0000     1.0520 o          1 2KA      -0.790800
      4 C7           2.0840    -0.0020    -1.2720 cc         1 2KA      -0.076600
      5 C5           3.5450    -0.0030    -1.4480 cc         1 2KA      -0.152600
      6 C8           1.5490    -0.0080    -2.5280 cd         1 2KA      -0.053300
      7 N9           2.5490    -0.0120    -3.4460 na         1 2KA      -0.138100
      8 C4           3.7700    -0.0040    -2.8290 cc         1 2KA       0.067100
      9 N3           5.0310    -0.0040    -3.2840 nc         1 2KA      -0.554100
     10 C2           6.0530     0.0050    -2.4590 cd         1 2KA       0.371800
     11 N2           7.3250     0.0050    -2.9740 nz         1 2KA      -0.710600
     12 N1           5.8900     0.0160    -1.1050 ns         1 2KA      -0.482400
     13 C6           4.6480    -0.0020    -0.5720 c          1 2KA       0.711100
     14 O6           4.4860    -0.0000     0.6370 o          1 2KA      -0.498500
     15 H2           0.4900    -0.0090    -2.7560 h4         1 2KA       0.218000
     16 H3           2.4120    -0.0170    -4.4380 hn         1 2KA       0.299700
     17 H4           7.8080     0.8270    -2.6710 hn         1 2KA       0.458800
     18 H5           7.2790    -0.0060    -3.9740 hn         1 2KA       0.458800
     19 H6           6.6920     0.0240    -0.5060 hn         1 2KA       0.323500
     20 H23          7.8140    -0.8070    -2.6540 hn         1 2KA       0.458800
@<TRIPOS>BOND
     1     7     6 1   
     2     7     8 1   
     3     6     4 2   
     4     8     9 1   
     5     8     5 2   
     6     4     5 1   
     7     4     2 1   
     8     9    10 2   
     9     3     2 1   
    10     5    13 1   
    11     2     1 1   
    12    10    11 1   
    13    10    12 1   
    14    13    12 1   
    15    13    14 2   
    16     6    15 1   
    17     7    16 1   
    18    11    17 1   
    19    11    18 1   
    20    12    19 1   
    21    20    11 1   
@<TRIPOS>SUBSTRUCTURE
     1 2KA         1 TEMP              0 ****  ****    0 ROOT
