@<TRIPOS>MOLECULE
2KB
   85    87     1     0     0
SMALL
bcc


@<TRIPOS>ATOM
      1 C4           0.0000     0.0000     0.0000 c3         1 2KB      -0.020400
      2 C5           1.5100     0.0000     0.0000 c3         1 2KB      -0.059000
      3 C6           1.9810     0.0000     1.4820 c3         1 2KB      -0.006500
      4 C7           3.4860    -0.2230     1.3180 c3         1 2KB      -0.029400
      5 C8           3.5530    -1.3150     0.2140 c3         1 2KB      -0.030400
      6 C13          2.3680     5.6850     4.1840 c3         1 2KB       0.008800
      7 C15          4.7480     6.4530     4.0410 c3         1 2KB       0.163100
      8 C17          4.2660     4.0540     3.6940 ce         1 2KB      -0.098200
      9 C20          2.0170     1.2690    -0.6880 c3         1 2KB      -0.042100
     10 C21          2.5350    -0.9600    -2.0740 c3         1 2KB      -0.063700
     11 C22          1.2220    -0.8860    -2.8570 c3         1 2KB      -0.023100
     12 C26          5.0500    -2.6610    -6.0420 c3         1 2KB       0.163800
     13 C28          5.8590    -1.3630    -6.0860 c3         1 2KB      -0.034100
     14 N35         10.1800    11.1230     4.1020 n1         1 2KB      -0.384800
     15 C34          9.5740    10.2290     4.4540 c1         1 2KB       0.188700
     16 C33          8.7770     9.0860     4.9280 c3         1 2KB       0.115700
     17 C32          7.5580     8.9030     4.0220 c3         1 2KB      -0.041400
     18 O19          5.5920     7.5440     3.6670 os         1 2KB      -0.385600
     19 C14          3.3040     6.7730     3.6480 c3         1 2KB       0.188100
     20 O30          2.9300     8.0360     4.2020 oh         1 2KB      -0.581800
     21 C16          5.2110     5.1810     3.3250 c3         1 2KB       0.218300
     22 O18          5.1840     5.3880     1.9110 oh         1 2KB      -0.564800
     23 C29          4.7180     2.8570     4.0630 c2         1 2KB      -0.161000
     24 C12          2.8200     4.3500     3.6250 ce         1 2KB      -0.088200
     25 C11          1.9440     3.4720     3.0930 cf         1 2KB      -0.091000
     26 C3           1.5530     1.3260     2.0380 c2         1 2KB      -0.092400
     27 C2           0.0600     1.6110     1.9600 c3         1 2KB       0.015800
     28 C9           2.2330    -1.1990    -0.5930 c3         1 2KB      -0.031700
     29 C1          -0.4640     1.3600     0.5470 c3         1 2KB      -0.030400
     30 C23          3.3860    -2.1110    -2.6140 c3         1 2KB      -0.035400
     31 C25          4.6440    -2.9600    -4.5980 c3         1 2KB      -0.024400
     32 O36          3.8780    -2.5180    -6.8470 oh         1 2KB      -0.588800
     33 C27          5.9010    -3.8120    -6.5830 c3         1 2KB      -0.034100
     34 H1          -0.3670    -0.1320    -1.0110 hc         1 2KB       0.022700
     35 H2          -0.3670    -0.7960     0.6370 hc         1 2KB       0.022700
     36 H3           1.5250    -0.8160     2.0290 hc         1 2KB       0.043700
     37 H4           3.9210    -0.5860     2.2410 hc         1 2KB       0.021700
     38 H5           3.9730     0.6860     0.9870 hc         1 2KB       0.021700
     39 H6           3.6260    -2.2960     0.6670 hc         1 2KB       0.019200
     40 H7           4.4010    -1.1340    -0.4350 hc         1 2KB       0.019200
     41 H9           1.3530     5.8880     3.8630 hc         1 2KB       0.026200
     42 H10          2.4180     5.6620     5.2650 hc         1 2KB       0.026200
     43 H11          4.8020     6.3010     5.1120 h1         1 2KB       0.022700
     44 H12          1.4400     1.4470    -1.5880 hc         1 2KB       0.023033
     45 H13          3.0620     1.1470    -0.9480 hc         1 2KB       0.023033
     46 H14          1.9080     2.1120    -0.0170 hc         1 2KB       0.023033
     47 H15          3.0750    -0.0280    -2.1850 hc         1 2KB       0.047700
     48 H16          0.9890     0.1500    -3.0730 hc         1 2KB       0.013033
     49 H17          0.4240    -1.3200    -2.2670 hc         1 2KB       0.013033
     50 H18          1.3240    -1.4340    -3.7860 hc         1 2KB       0.013033
     51 H21          5.1840    -0.5160    -6.0800 hc         1 2KB       0.011867
     52 H22          6.5090    -1.3140    -5.2200 hc         1 2KB       0.011867
     53 H23          6.4580    -1.3410    -6.9880 hc         1 2KB       0.011867
     54 H24          8.4480     9.2710     5.9430 hc         1 2KB       0.027700
     55 H25          9.3830     8.1880     4.9030 hc         1 2KB       0.027700
     56 H26          6.9520     9.8010     4.0470 hc         1 2KB       0.033700
     57 H27          7.8920     8.7220     3.0070 hc         1 2KB       0.033700
     58 H28          6.4000     7.9000     5.5290 h1         1 2KB      -0.009800
     59 H29          7.3360     6.8170     4.4890 h1         1 2KB      -0.009800
     60 H30          3.2270     6.8110     2.5680 h1         1 2KB       0.029700
     61 H31          2.3440     8.4770     3.6090 ho         1 2KB       0.392000
     62 H32          6.2150     4.9310     3.6430 h1         1 2KB       0.003700
     63 H33          6.0070     5.1170     1.5380 ho         1 2KB       0.388000
     64 H34          4.0200     2.0700     4.3210 ha         1 2KB       0.097000
     65 H35          5.7840     2.6700     4.1040 ha         1 2KB       0.097000
     66 H36          0.8880     3.7150     3.0570 ha         1 2KB       0.116000
     67 H37         -0.1190     2.6450     2.2270 hc         1 2KB       0.022200
     68 H38         -0.4630     0.9630     2.6530 hc         1 2KB       0.022200
     69 H39          1.6370    -2.0950    -0.4660 hc         1 2KB       0.033700
     70 H40         -1.5460     1.3810     0.5650 hc         1 2KB       0.018200
     71 H41         -0.1010     2.1440    -0.1060 hc         1 2KB       0.018200
     72 H42          2.8130    -3.0290    -2.5830 hc         1 2KB       0.018200
     73 H43          4.2750    -2.2190    -2.0040 hc         1 2KB       0.018200
     74 H44          5.5320    -3.0690    -3.9880 hc         1 2KB       0.020700
     75 H45          4.0700    -3.8790    -4.5680 hc         1 2KB       0.020700
     76 H46          4.0970    -2.6670    -7.7520 ho         1 2KB       0.392000
     77 H47          6.2060    -3.5890    -7.5980 hc         1 2KB       0.011867
     78 H48          6.7790    -3.9340    -5.9610 hc         1 2KB       0.011867
     79 H49          5.3200    -4.7260    -6.5720 hc         1 2KB       0.011867
     80 C10          2.4190     2.1920     2.5650 cf         1 2KB      -0.166000
     81 C24          3.7920    -1.8100    -4.0590 c3         1 2KB      -0.043400
     82 C31          6.7300     7.7140     4.5140 c3         1 2KB       0.208400
     83 H8           3.4690     1.9330     2.6350 ha         1 2KB       0.138000
     84 H19          2.9030    -1.7020    -4.6680 hc         1 2KB       0.029700
     85 H20          4.3650    -0.8910    -4.0890 hc         1 2KB       0.029700
@<TRIPOS>BOND
     1     1     2 1   
     2     1    29 1   
     3     1    34 1   
     4     1    35 1   
     5     2     3 1   
     6     2     9 1   
     7     2    28 1   
     8     3     4 1   
     9     3    26 1   
    10     3    36 1   
    11     4     5 1   
    12     4    37 1   
    13     4    38 1   
    14     5    28 1   
    15     5    39 1   
    16     5    40 1   
    17     6    19 1   
    18     6    24 1   
    19     6    41 1   
    20     6    42 1   
    21     7    18 1   
    22     7    19 1   
    23     7    21 1   
    24     7    43 1   
    25     8    21 1   
    26     8    23 2   
    27     8    24 1   
    28     9    44 1   
    29     9    45 1   
    30     9    46 1   
    31    10    11 1   
    32    10    28 1   
    33    10    30 1   
    34    10    47 1   
    35    11    48 1   
    36    11    49 1   
    37    11    50 1   
    38    12    13 1   
    39    12    31 1   
    40    12    32 1   
    41    12    33 1   
    42    13    51 1   
    43    13    52 1   
    44    13    53 1   
    45    14    15 3   
    46    15    16 1   
    47    16    17 1   
    48    16    54 1   
    49    16    55 1   
    50    17    56 1   
    51    17    57 1   
    52    17    82 1   
    53    18    82 1   
    54    19    20 1   
    55    19    60 1   
    56    20    61 1   
    57    21    22 1   
    58    21    62 1   
    59    22    63 1   
    60    23    64 1   
    61    23    65 1   
    62    24    25 2   
    63    25    66 1   
    64    25    80 1   
    65    26    27 1   
    66    26    80 2   
    67    27    29 1   
    68    27    67 1   
    69    27    68 1   
    70    28    69 1   
    71    29    70 1   
    72    29    71 1   
    73    30    72 1   
    74    30    73 1   
    75    30    81 1   
    76    31    74 1   
    77    31    75 1   
    78    31    81 1   
    79    32    76 1   
    80    33    77 1   
    81    33    78 1   
    82    33    79 1   
    83    58    82 1   
    84    59    82 1   
    85    80    83 1   
    86    81    84 1   
    87    81    85 1   
@<TRIPOS>SUBSTRUCTURE
     1 2KB         1 TEMP              0 ****  ****    0 ROOT
