@<TRIPOS>MOLECULE
molecule
   85    87     1     0     0
SMALL
bcc


@<TRIPOS>ATOM
      1 C4           0.0000     0.0000     0.0000 c3         1 2KB      -0.065400
      2 C5           1.5100     0.0000     0.0000 c3         1 2KB      -0.060000
      3 C6           1.9810     0.0000     1.4820 c3         1 2KB      -0.036500
      4 C7           3.4860    -0.2230     1.3180 c3         1 2KB      -0.078400
      5 C8           3.5530    -1.3150     0.2140 c3         1 2KB      -0.081400
      6 C13          2.3680     5.6850     4.1840 c3         1 2KB      -0.056200
      7 C15          4.7480     6.4530     4.0410 c3         1 2KB       0.148100
      8 C17          4.2660     4.0540     3.6940 ce         1 2KB      -0.097200
      9 C20          2.0170     1.2690    -0.6880 c3         1 2KB      -0.091100
     10 C21          2.5350    -0.9600    -2.0740 c3         1 2KB      -0.071700
     11 C22          1.2220    -0.8860    -2.8570 c3         1 2KB      -0.095100
     12 C26          5.0500    -2.6610    -6.0420 c3         1 2KB       0.147800
     13 C28          5.8590    -1.3630    -6.0860 c3         1 2KB      -0.120100
     14 N35         10.1780    11.1120     4.0730 n1         1 2KB      -0.369800
     15 C34          9.5740    10.2290     4.4540 c1         1 2KB       0.211700
     16 C33          8.7770     9.0860     4.9280 c3         1 2KB      -0.016300
     17 C32          7.5580     8.9030     4.0220 c3         1 2KB      -0.080400
     18 O19          5.5920     7.5440     3.6670 os         1 2KB      -0.403600
     19 C14          3.3040     6.7730     3.6480 c3         1 2KB       0.156100
     20 O30          2.9300     8.0360     4.2020 oh         1 2KB      -0.601800
     21 C16          5.2110     5.1810     3.3250 c3         1 2KB       0.168300
     22 O18          5.1840     5.3880     1.9110 oh         1 2KB      -0.582800
     23 C29          4.7180     2.8570     4.0630 c2         1 2KB      -0.208000
     24 C12          2.8200     4.3500     3.6250 cf         1 2KB      -0.088200
     25 C11          1.9440     3.4720     3.0930 ce         1 2KB      -0.112000
     26 C3           1.5530     1.3260     2.0380 c2         1 2KB      -0.088400
     27 C2           0.0600     1.6110     1.9600 c3         1 2KB      -0.045200
     28 C9           2.2330    -1.1990    -0.5930 c3         1 2KB      -0.054700
     29 C1          -0.4640     1.3600     0.5470 c3         1 2KB      -0.078400
     30 C23          3.3860    -2.1110    -2.6140 c3         1 2KB      -0.082400
     31 C25          4.6440    -2.9600    -4.5980 c3         1 2KB      -0.066400
     32 O36          3.8780    -2.5180    -6.8470 oh         1 2KB      -0.604800
     33 C27          5.9010    -3.8120    -6.5830 c3         1 2KB      -0.120100
     34 H1          -0.3670    -0.7960     0.6370 hc         1 2KB       0.045700
     35 H2          -0.3670    -0.1320    -1.0110 hc         1 2KB       0.045700
     36 H3           1.5250    -0.8160     2.0290 hc         1 2KB       0.066700
     37 H4           3.9210    -0.5860     2.2410 hc         1 2KB       0.047200
     38 H5           3.9730     0.6860     0.9870 hc         1 2KB       0.047200
     39 H6           4.4010    -1.1340    -0.4350 hc         1 2KB       0.044700
     40 H7           3.6260    -2.2960     0.6670 hc         1 2KB       0.044700
     41 H9           2.4180     5.6620     5.2650 hc         1 2KB       0.058700
     42 H10          1.3530     5.8880     3.8630 hc         1 2KB       0.058700
     43 H11          4.8020     6.3010     5.1120 h1         1 2KB       0.053700
     44 H12          3.0620     1.1470    -0.9480 hc         1 2KB       0.041033
     45 H13          1.4400     1.4470    -1.5880 hc         1 2KB       0.041033
     46 H14          1.9080     2.1120    -0.0170 hc         1 2KB       0.041033
     47 H15          3.0750    -0.0280    -2.1850 hc         1 2KB       0.060700
     48 H16          0.4250    -1.3210    -2.2670 hc         1 2KB       0.037033
     49 H17          1.3250    -1.4330    -3.7860 hc         1 2KB       0.037033
     50 H18          0.9880     0.1500    -3.0720 hc         1 2KB       0.037033
     51 H21          6.4590    -1.3420    -6.9880 hc         1 2KB       0.041700
     52 H22          6.5080    -1.3130    -5.2200 hc         1 2KB       0.041700
     53 H23          5.1840    -0.5160    -6.0800 hc         1 2KB       0.041700
     54 H24          9.3830     8.1880     4.9030 hc         1 2KB       0.069700
     55 H25          8.4480     9.2710     5.9430 hc         1 2KB       0.069700
     56 H26          7.8870     8.7190     3.0060 hc         1 2KB       0.066700
     57 H27          6.9520     9.8010     4.0470 hc         1 2KB       0.066700
     58 H28          7.3360     6.8170     4.4890 h1         1 2KB       0.022700
     59 H29          6.4000     7.9000     5.5290 h1         1 2KB       0.022700
     60 H30          3.2270     6.8110     2.5680 h1         1 2KB       0.066700
     61 H31          2.3420     8.4770     3.6100 ho         1 2KB       0.405000
     62 H32          6.2150     4.9310     3.6430 h1         1 2KB       0.037700
     63 H33          6.0070     5.1170     1.5380 ho         1 2KB       0.403000
     64 H34          5.7840     2.6700     4.1040 ha         1 2KB       0.122500
     65 H35          4.0200     2.0700     4.3210 ha         1 2KB       0.122500
     66 H36          0.8880     3.7150     3.0570 ha         1 2KB       0.134000
     67 H37         -0.1190     2.6450     2.2270 hc         1 2KB       0.049200
     68 H38         -0.4630     0.9630     2.6530 hc         1 2KB       0.049200
     69 H39          1.6370    -2.0950    -0.4660 hc         1 2KB       0.053700
     70 H40         -1.5460     1.3820     0.5650 hc         1 2KB       0.043700
     71 H41         -0.1010     2.1440    -0.1060 hc         1 2KB       0.043700
     72 H42          2.8130    -3.0290    -2.5830 hc         1 2KB       0.040700
     73 H43          4.2750    -2.2190    -2.0040 hc         1 2KB       0.040700
     74 H44          4.0700    -3.8790    -4.5680 hc         1 2KB       0.047200
     75 H45          5.5320    -3.0690    -3.9880 hc         1 2KB       0.047200
     76 H46          4.0980    -2.6650    -7.7520 ho         1 2KB       0.401000
     77 H47          6.2090    -3.5880    -7.5970 hc         1 2KB       0.041700
     78 H48          6.7780    -3.9360    -5.9590 hc         1 2KB       0.041700
     79 H49          5.3200    -4.7260    -6.5750 hc         1 2KB       0.041700
     80 C10          2.4190     2.1920     2.5650 ce         1 2KB      -0.166000
     81 C24          3.7920    -1.8100    -4.0590 c3         1 2KB      -0.082400
     82 C31          6.7300     7.7140     4.5140 c3         1 2KB       0.137400
     83 H8           3.4650     1.9240     2.6550 ha         1 2KB       0.146000
     84 H19          2.9030    -1.7020    -4.6680 hc         1 2KB       0.052200
     85 H20          4.3650    -0.8910    -4.0890 hc         1 2KB       0.052200
@<TRIPOS>BOND
     1    29     1 1
     2    29    27 1
     3    14    15 3
     4     1     2 1
     5    27    26 1
     6    13    12 1
     7     6    19 1
     8     6    24 1
     9    15    16 1
    10    82    18 1
    11    82    17 1
    12    25    24 2
    13    25    80 1
    14    18     7 1
    15     9     2 1
    16    19    20 1
    17    19     7 1
    18     2     3 1
    19     2    28 1
    20    24     8 1
    21    26    80 2
    22    26     3 1
    23    16    17 1
    24    12    32 1
    25    12    31 1
    26    12    33 1
    27    81    31 1
    28    81    30 1
    29    10    28 1
    30    10    30 1
    31    10    11 1
    32     3     4 1
    33     7    21 1
    34    28     5 1
    35     8    23 2
    36     8    21 1
    37    21    22 1
    38     4     5 1
    39     1    34 1
    40     1    35 1
    41     3    36 1
    42     4    37 1
    43     4    38 1
    44     5    39 1
    45     5    40 1
    46    80    83 1
    47     6    41 1
    48     6    42 1
    49     7    43 1
    50     9    44 1
    51     9    45 1
    52     9    46 1
    53    10    47 1
    54    11    48 1
    55    11    49 1
    56    11    50 1
    57    81    84 1
    58    81    85 1
    59    13    51 1
    60    13    52 1
    61    13    53 1
    62    16    54 1
    63    16    55 1
    64    17    56 1
    65    17    57 1
    66    82    58 1
    67    82    59 1
    68    19    60 1
    69    20    61 1
    70    21    62 1
    71    22    63 1
    72    23    64 1
    73    23    65 1
    74    25    66 1
    75    27    67 1
    76    27    68 1
    77    28    69 1
    78    29    70 1
    79    29    71 1
    80    30    72 1
    81    30    73 1
    82    31    74 1
    83    31    75 1
    84    32    76 1
    85    33    77 1
    86    33    78 1
    87    33    79 1
@<TRIPOS>SUBSTRUCTURE
     1 2KB         1 TEMP              0 ****  ****    0 ROOT
