@<TRIPOS>MOLECULE
2KC
   51    54     1     0     0
SMALL
bcc


@<TRIPOS>ATOM
      1 N1           0.0000     0.0000     0.0000 n3         1 2KC      -0.552600
      2 C2           1.4680     0.0000     0.0000 c3         1 2KC       0.154800
      3 C3           1.9800     0.0000     1.4430 c3         1 2KC      -0.024900
      4 C4           1.4500    -1.2420     2.1660 c3         1 2KC      -0.104800
      5 C5          -0.0790    -1.2420     2.1100 c3         1 2KC      -0.024900
      6 C6          -0.5320    -1.2060     0.6480 c3         1 2KC       0.154800
      7 N7          -4.8630     2.4430    -0.8480 nc         1 2KC      -0.737800
      8 C8          -4.3700     3.6230    -0.5900 cd         1 2KC       0.749900
      9 N9          -3.0590     3.8520    -0.5440 nd         1 2KC      -0.772000
     10 C10         -2.1780     2.8890    -0.7570 cc         1 2KC       0.614200
     11 C11         -2.6420     1.5830    -1.0420 cc         1 2KC      -0.456600
     12 C12         -2.0130     0.3820    -1.3080 cd         1 2KC      -0.160200
     13 C13         -3.0180    -0.5640    -1.5130 cd         1 2KC      -0.156000
     14 C14         -4.2160     0.0620    -1.3710 cc         1 2KC      -0.290100
     15 C16         -0.5270     0.1400    -1.3650 c3         1 2KC       0.251000
     16 N17         -4.0050     1.3610    -1.0870 na         1 2KC       0.788200
     17 C18         -0.3750     4.4170    -0.3080 ca         1 2KC       0.008600
     18 C19         -1.0420     5.1100     0.6930 ca         1 2KC      -0.128000
     19 C20         -0.5950     6.3630     1.0820 ca         1 2KC       0.169100
     20 C21          0.5210     6.9210     0.4720 ca         1 2KC      -0.170000
     21 C22          1.1840     6.2300    -0.5250 ca         1 2KC       0.080100
     22 C23          0.7430     4.9780    -0.9120 ca         1 2KC      -0.150000
     23 O24         -1.2450     7.0440     2.0610 oh         1 2KC      -0.475100
     24 C25          1.9880    -2.5000     1.4820 c3         1 2KC      -0.016100
     25 N26          1.8910    -1.2180     3.5670 nz         1 2KC       0.070400
     26 Br27         2.7020     6.9940    -1.3540 br         1 2KC      -0.106100
     27 H28          1.8270    -0.8860    -0.5090 h1         1 2KC       0.036700
     28 H29          1.8270     0.8860    -0.5090 h1         1 2KC       0.036700
     29 H30          3.0630    -0.0190     1.4410 hc         1 2KC       0.039200
     30 H31          1.6290     0.8900     1.9500 hc         1 2KC       0.039200
     31 H32         -0.4590    -0.3690     2.6260 hc         1 2KC       0.039200
     32 H33         -0.4570    -2.1410     2.5820 hc         1 2KC       0.039200
     33 H34         -1.6140    -1.1890     0.6060 h1         1 2KC       0.036700
     34 H35         -0.1600    -2.0840     0.1340 h1         1 2KC       0.036700
     35 H36         -5.0520     4.4460    -0.4080 h5         1 2KC       0.016100
     36 H37         -2.8710    -1.5950    -1.8100 ha         1 2KC       0.132000
     37 H38         -5.1870    -0.4080    -1.4720 h4         1 2KC       0.164000
     38 H39         -0.1660     2.4530    -0.9800 hn         1 2KC       0.299800
     39 H40         -0.3300    -0.7680    -1.9220 h1         1 2KC       0.019700
     40 H41         -0.0430     0.9760    -1.8550 h1         1 2KC       0.019700
     41 H42         -1.9120     4.6730     1.1670 ha         1 2KC       0.145000
     42 H43          0.8700     7.9010     0.7750 ha         1 2KC       0.131000
     43 H44          1.2640     4.4380    -1.6930 ha         1 2KC       0.119000
     44 H45         -0.6160     7.4230     2.6520 ho         1 2KC       0.406000
     45 H46          1.6660    -2.5150     0.4480 hc         1 2KC       0.042700
     46 H47          3.0700    -2.5000     1.5240 hc         1 2KC       0.042700
     47 H48          1.6070    -3.3780     1.9900 hc         1 2KC       0.042700
     48 H49          1.5530    -2.0340     4.0370 hn         1 2KC       0.225467
     49 H50          1.5310    -0.4000     4.0170 hn         1 2KC       0.225467
     50 H263         2.8920    -1.2040     3.6010 hn         1 2KC       0.225467
     51 N15         -0.8240     3.1540    -0.7030 nu         1 2KC      -0.276300
@<TRIPOS>BOND
     1     1     2 1   
     2     1     6 1   
     3     1    15 1   
     4     2     3 1   
     5     2    27 1   
     6     2    28 1   
     7     3     4 1   
     8     3    29 1   
     9     3    30 1   
    10     4     5 1   
    11     4    24 1   
    12     4    25 1   
    13     5     6 1   
    14     5    31 1   
    15     5    32 1   
    16     6    33 1   
    17     6    34 1   
    18     7     8 2   
    19     7    16 1   
    20     8     9 1   
    21     8    35 1   
    22     9    10 2   
    23    10    11 1   
    24    10    51 1   
    25    11    12 2   
    26    11    16 1   
    27    12    13 1   
    28    12    15 1   
    29    13    14 2   
    30    13    36 1   
    31    14    16 1   
    32    14    37 1   
    33    15    39 1   
    34    15    40 1   
    35    17    18 ar  
    36    17    22 ar  
    37    17    51 1   
    38    18    19 ar  
    39    18    41 1   
    40    19    20 ar  
    41    19    23 1   
    42    20    21 ar  
    43    20    42 1   
    44    21    22 ar  
    45    21    26 1   
    46    22    43 1   
    47    23    44 1   
    48    24    45 1   
    49    24    46 1   
    50    24    47 1   
    51    25    48 1   
    52    25    49 1   
    53    25    50 1   
    54    38    51 1   
@<TRIPOS>SUBSTRUCTURE
     1 2KC         1 TEMP              0 ****  ****    0 ROOT
