@<TRIPOS>MOLECULE
molecule
   56    59     1     0     0
SMALL
bcc


@<TRIPOS>ATOM
      1 N01          0.0000     0.0000     0.0000 nb         1 2KD      -0.726000
      2 C02          1.3170     0.0000     0.0000 ca         1 2KD       0.391800
      3 C03          2.0670     0.0000     1.1840 ca         1 2KD      -0.192300
      4 C04          1.4090     0.0000     2.4070 ca         1 2KD      -0.043600
      5 C05         -0.0540     0.0000     2.3820 ca         1 2KD      -0.138300
      6 C06         -0.7130    -0.0000     1.1220 ca         1 2KD       0.412600
      7 C07         -0.8030    -0.0000     3.5600 ca         1 2KD      -0.051000
      8 C08         -2.1870     0.0000     3.4870 cp         1 2KD      -0.096000
      9 C09         -2.8330     0.0000     2.2400 ca         1 2KD      -0.115000
     10 C10         -2.1220     0.0000     1.0840 ca         1 2KD      -0.192300
     11 C11          2.0310     0.0000    -1.2990 c          1 2KD       0.585600
     12 C12          2.1550    -0.0000     3.6820 c          1 2KD       0.886200
     13 C13         -2.9890    -0.0010     4.7330 cp         1 2KD       0.002000
     14 O14          3.2460     0.0000    -1.3240 o          1 2KD      -0.603100
     15 N15          1.3340    -0.0000    -2.4520 ns         1 2KD      -0.558900
     16 C16          2.0390    -0.0010    -3.7360 c3         1 2KD       0.083700
     17 C17          1.1390    -0.6100    -4.8120 c3         1 2KD      -0.042100
     18 C18          0.8910    -2.0620    -4.4950 ca         1 2KD      -0.094300
     19 C19          2.3900     1.4150    -4.1170 c          1 2KD       0.606100
     20 O20          2.0810     2.3300    -3.3900 o          1 2KD      -0.523000
     21 O21          3.0450     1.6600    -5.2630 os         1 2KD      -0.439900
     22 C22          3.3490     3.0460    -5.5650 c3         1 2KD       0.139700
     23 O23          1.5580     0.1030     4.7350 o          1 2KD      -0.818800
     24 O24          3.4970    -0.1150     3.6770 o          1 2KD      -0.818800
     25 C25         -4.3810    -0.0000     4.6690 ca         1 2KD      -0.131000
     26 C26         -5.1240    -0.0000     5.8330 ca         1 2KD       0.026400
     27 C27         -4.4880    -0.0010     7.0630 ca         1 2KD      -0.142000
     28 C28         -3.1070    -0.0010     7.1320 ca         1 2KD      -0.120000
     29 C29         -2.3550    -0.0060     5.9750 ca         1 2KD      -0.115000
     30 C30         -0.1930    -2.4210    -3.7130 ca         1 2KD      -0.104500
     31 C31         -0.4240    -3.7510    -3.4210 ca         1 2KD      -0.148000
     32 C32          0.4310    -4.7270    -3.9110 ca         1 2KD       0.102100
     33 C33          1.5170    -4.3640    -4.6950 ca         1 2KD      -0.148000
     34 C34          1.7410    -3.0340    -4.9890 ca         1 2KD      -0.104500
     35 Cl          -6.8580    -0.0010     5.7560 cl         1 2KD      -0.140400
     36 O36          0.2060    -6.0360    -3.6240 oh         1 2KD      -0.520100
     37 H1           3.1500     0.0000     1.1460 ha         1 2KD       0.190000
     38 H2          -0.3060    -0.0000     4.5230 ha         1 2KD       0.211000
     39 H3          -3.9160     0.0000     2.2000 ha         1 2KD       0.117000
     40 H4          -2.6380     0.0000     0.1310 ha         1 2KD       0.127000
     41 H5           0.3340     0.0470    -2.4310 hn         1 2KD       0.339500
     42 H6           2.9470    -0.5870    -3.6490 h1         1 2KD       0.110700
     43 H7           0.1960    -0.0790    -4.8370 hc         1 2KD       0.060700
     44 H8           1.6250    -0.5300    -5.7770 hc         1 2KD       0.060700
     45 H9           3.8340     3.1060    -6.5320 h1         1 2KD       0.045700
     46 H10          4.0100     3.4450    -4.8050 h1         1 2KD       0.045700
     47 H11          2.4320     3.6210    -5.5840 h1         1 2KD       0.045700
     48 H13         -4.8800     0.0010     3.7070 ha         1 2KD       0.141000
     49 H14         -5.0750     0.0010     7.9740 ha         1 2KD       0.130000
     50 H15         -2.6150    -0.0030     8.0970 ha         1 2KD       0.134000
     51 H16         -1.2730    -0.0060     6.0320 ha         1 2KD       0.171000
     52 H17         -0.8600    -1.6590    -3.3300 ha         1 2KD       0.135500
     53 H18         -1.2730    -4.0320    -2.8080 ha         1 2KD       0.139500
     54 H19          2.1840    -5.1250    -5.0810 ha         1 2KD       0.139500
     55 H20          2.5890    -2.7500    -5.6020 ha         1 2KD       0.135500
     56 H21         -0.3490    -6.4130    -4.2870 ho         1 2KD       0.412000
@<TRIPOS>BOND
     1    36    32 1   
     2    33    32 ar  
     3    33    34 ar  
     4    32    31 ar  
     5    34    18 ar  
     6    31    30 ar  
     7    18    30 ar  
     8    18    17 1   
     9    17    16 1   
    10    21    22 1   
    11    21    19 1   
    12    16    19 1   
    13    16    15 1   
    14    14    11 2   
    15    19    20 2   
    16    15    11 1   
    17    11     2 1   
    18     1     2 ar  
    19     1     6 ar  
    20     2     3 ar  
    21    10     6 ar  
    22    10     9 ar  
    23     6     5 ar  
    24     3     4 ar  
    25     9     8 ar  
    26     5     4 ar  
    27     5     7 ar  
    28     4    12 1   
    29    23    12 1   
    30    29    28 ar  
    31    29    13 ar  
    32     8     7 ar  
    33     8    13 1   
    34    12    24 1   
    35    28    27 ar  
    36    13    25 ar  
    37    27    26 ar  
    38    25    26 ar  
    39    26    35 1   
    40     3    37 1   
    41     7    38 1   
    42     9    39 1   
    43    10    40 1   
    44    15    41 1   
    45    16    42 1   
    46    17    43 1   
    47    17    44 1   
    48    22    45 1   
    49    22    46 1   
    50    22    47 1   
    51    25    48 1   
    52    27    49 1   
    53    28    50 1   
    54    29    51 1   
    55    30    52 1   
    56    31    53 1   
    57    33    54 1   
    58    34    55 1   
    59    36    56 1   
@<TRIPOS>SUBSTRUCTURE
     1 2KD         1 TEMP              0 ****  ****    0 ROOT
