@<TRIPOS>MOLECULE
2KD
   56    59     1     0     0
SMALL
bcc


@<TRIPOS>ATOM
      1 N01          0.0000     0.0000     0.0000 nb         1 2KD      -0.610000
      2 C02          1.3170     0.0000     0.0000 ca         1 2KD       0.328800
      3 C03          2.0670     0.0000     1.1840 ca         1 2KD      -0.159300
      4 C04          1.4090     0.0000     2.4070 ca         1 2KD      -0.046600
      5 C05         -0.0540     0.0000     2.3820 ca         1 2KD      -0.122300
      6 C06         -0.7130    -0.0000     1.1220 ca         1 2KD       0.359600
      7 C07         -0.8030    -0.0000     3.5600 ca         1 2KD      -0.051000
      8 C08         -2.1870     0.0000     3.4870 cp         1 2KD      -0.094000
      9 C09         -2.8330     0.0000     2.2400 ca         1 2KD      -0.098000
     10 C10         -2.1220     0.0000     1.0840 ca         1 2KD      -0.172300
     11 C11          2.0310     0.0000    -1.2990 c          1 2KD       0.500600
     12 C12          2.1550    -0.0000     3.6820 c          1 2KD       0.978200
     13 C13         -2.9890    -0.0010     4.7330 cp         1 2KD       0.014000
     14 O14          3.2460     0.0000    -1.3240 o          1 2KD      -0.649100
     15 N15          1.3340    -0.0000    -2.4520 ns         1 2KD      -0.175900
     16 C16          2.0390    -0.0010    -3.7360 c3         1 2KD      -0.020300
     17 C17          1.1390    -0.6100    -4.8120 c3         1 2KD       0.027900
     18 C18          0.8910    -2.0620    -4.4950 ca         1 2KD      -0.114300
     19 C19          2.3900     1.4150    -4.1170 c          1 2KD       0.672100
     20 O20          2.0810     2.3300    -3.3900 o          1 2KD      -0.564000
     21 O21          3.0450     1.6600    -5.2630 os         1 2KD      -0.422900
     22 C22          3.3490     3.0460    -5.5650 c3         1 2KD       0.267700
     23 O23          1.5580     0.1030     4.7350 o          1 2KD      -0.867300
     24 O24          3.4970    -0.1150     3.6770 o          1 2KD      -0.867300
     25 C25         -4.3810    -0.0000     4.6690 ca         1 2KD      -0.121000
     26 C26         -5.1240    -0.0000     5.8330 ca         1 2KD      -0.025600
     27 C27         -4.4880    -0.0010     7.0630 ca         1 2KD      -0.127000
     28 C28         -3.1070    -0.0010     7.1320 ca         1 2KD      -0.089000
     29 C29         -2.3550    -0.0060     5.9750 ca         1 2KD      -0.097000
     30 C30         -0.1930    -2.4210    -3.7130 ca         1 2KD      -0.072000
     31 C31         -0.4240    -3.7510    -3.4210 ca         1 2KD      -0.133500
     32 C32          0.4310    -4.7270    -3.9110 ca         1 2KD       0.122100
     33 C33          1.5170    -4.3640    -4.6950 ca         1 2KD      -0.133500
     34 C34          1.7410    -3.0340    -4.9890 ca         1 2KD      -0.072000
     35 Cl          -6.8580    -0.0010     5.7560 cl         1 2KD      -0.068400
     36 O36          0.2060    -6.0360    -3.6240 oh         1 2KD      -0.498100
     37 H1           3.1500     0.0000     1.1460 ha         1 2KD       0.164000
     38 H2          -0.3060    -0.0000     4.5230 ha         1 2KD       0.197000
     39 H3          -3.9160     0.0000     2.2000 ha         1 2KD       0.096000
     40 H4          -2.6380     0.0000     0.1310 ha         1 2KD       0.099000
     41 H5           0.3340     0.0470    -2.4310 hn         1 2KD       0.198500
     42 H6           2.9470    -0.5870    -3.6490 h1         1 2KD       0.078700
     43 H7           0.1960    -0.0790    -4.8370 hc         1 2KD       0.027700
     44 H8           1.6250    -0.5300    -5.7770 hc         1 2KD       0.027700
     45 H9           3.8340     3.1060    -6.5320 h1         1 2KD      -0.001633
     46 H10          4.0100     3.4450    -4.8050 h1         1 2KD      -0.001633
     47 H11          2.4320     3.6210    -5.5840 h1         1 2KD      -0.001633
     48 H13         -4.8800     0.0010     3.7070 ha         1 2KD       0.120000
     49 H14         -5.0750     0.0010     7.9740 ha         1 2KD       0.104000
     50 H15         -2.6150    -0.0030     8.0970 ha         1 2KD       0.103000
     51 H16         -1.2730    -0.0060     6.0320 ha         1 2KD       0.147000
     52 H17         -0.8600    -1.6590    -3.3300 ha         1 2KD       0.109000
     53 H18         -1.2730    -4.0320    -2.8080 ha         1 2KD       0.113000
     54 H19          2.1840    -5.1250    -5.0810 ha         1 2KD       0.113000
     55 H20          2.5890    -2.7500    -5.6020 ha         1 2KD       0.109000
     56 H21         -0.3490    -6.4130    -4.2870 ho         1 2KD       0.395000
@<TRIPOS>BOND
     1     1     2 ar  
     2     1     6 ar  
     3     2     3 ar  
     4     2    11 1   
     5     3     4 ar  
     6     3    37 1   
     7     4     5 ar  
     8     4    12 1   
     9     5     6 ar  
    10     5     7 ar  
    11     6    10 ar  
    12     7     8 ar  
    13     7    38 1   
    14     8     9 ar  
    15     8    13 1   
    16     9    10 ar  
    17     9    39 1   
    18    10    40 1   
    19    11    14 2   
    20    11    15 1   
    21    12    23 1   
    22    12    24 1   
    23    13    25 ar  
    24    13    29 ar  
    25    15    16 1   
    26    15    41 1   
    27    16    17 1   
    28    16    19 1   
    29    16    42 1   
    30    17    18 1   
    31    17    43 1   
    32    17    44 1   
    33    18    30 ar  
    34    18    34 ar  
    35    19    20 2   
    36    19    21 1   
    37    21    22 1   
    38    22    45 1   
    39    22    46 1   
    40    22    47 1   
    41    25    26 ar  
    42    25    48 1   
    43    26    27 ar  
    44    26    35 1   
    45    27    28 ar  
    46    27    49 1   
    47    28    29 ar  
    48    28    50 1   
    49    29    51 1   
    50    30    31 ar  
    51    30    52 1   
    52    31    32 ar  
    53    31    53 1   
    54    32    33 ar  
    55    32    36 1   
    56    33    34 ar  
    57    33    54 1   
    58    34    55 1   
    59    36    56 1   
@<TRIPOS>SUBSTRUCTURE
     1 2KD         1 TEMP              0 ****  ****    0 ROOT
