@<TRIPOS>MOLECULE
2KE
   73    73     1     0     0
SMALL
bcc


@<TRIPOS>ATOM
      1 C18        -0.7890   -0.9220    1.6570 c2        1 2KE     -0.211000
      2 C17         0.6240   -0.4580    1.6000 c3        1 2KE     -0.125000
      3 C15         1.3660   -1.6170   -0.5080 c2        1 2KE      0.279000
      4 C19        -1.6260   -0.5250    2.6340 c2        1 2KE     -0.028000
      5 C20        -1.2320    0.3910    3.7350 c2        1 2KE      0.247000
      6 C21         0.0980    1.0750    3.5520 c3        1 2KE     -0.275000
      7 C22         0.9440    0.6810    2.4550 c1        1 2KE     -0.056000
      8 C11         1.9720    1.7500   -3.5540 ca        1 2KE     -0.033000
      9 C34         1.2110   -3.5020   -6.0200 c2        1 2KE      0.161000
     10 C33         0.9710   -2.2880   -5.4220 c2        1 2KE     -0.933000
     11 N1          2.4020   -1.7580   -1.4100 n         1 2KE     -0.325000
     12 N2          4.3130    4.4000   -4.7740 n3        1 2KE     -0.147000
     13 C3          4.8420    4.8700   -3.6120 c1        1 2KE     -0.146000
     14 C4          4.4770    4.2640   -2.4060 c2        1 2KE     -0.300000
     15 C5          3.5520    3.2080   -2.3800 ca        1 2KE      0.096000
     16 C6          2.9660    2.7640   -3.6080 ca        1 2KE     -0.198000
     17 C7          3.3990    3.3540   -4.8470 c2        1 2KE      0.172000
     18 C8          3.2040    2.5440   -1.1690 ca        1 2KE     -0.235000
     19 C9          2.3100    1.4800   -1.1550 ca        1 2KE      0.101000
     20 C10         1.6420    1.1310   -2.3830 ca        1 2KE     -0.245000
     21 N13         2.1490    0.7110   -0.0000 nh        1 2KE     -0.321000
     22 C14         1.0640   -0.2250    0.1230 c3        1 2KE      0.052000
     23 O23        -1.9310    0.5840    4.7320 o         1 2KE     -0.257000
     24 O24        -2.9340   -0.9590    2.7790 os        1 2KE     -0.145000
     25 C25        -3.5380   -1.4710    1.6290 c2        1 2KE     -0.051000
     26 C26        -4.4690   -2.4160    1.7780 c2        1 2KE     -0.241000
     27 C28         2.3250    0.8600    6.4530 c1        1 2KE     -0.242000
     28 C29        -0.0210    0.5950    7.5980 c3        1 2KE     -0.133000
     29 C30         2.5620   -2.9630   -2.1640 c3        1 2KE      0.025000
     30 C31         1.4360   -3.2660   -3.1880 c3        1 2KE     -0.196000
     31 C32         1.1020   -2.1170   -4.0240 c1        1 2KE     -0.085000
     32 C35         1.6010   -4.6380   -5.2410 c2        1 2KE     -0.231000
     33 C36         1.7290   -4.5350   -3.8950 c2        1 2KE     -0.032000
     34 O38         1.5520    0.0510   -6.2430 o         1 2KE     -0.965000
     35 O39         0.0760   -1.2850   -7.5400 o         1 2KE     -0.965000
     36 N40        -0.7430   -0.3650   -5.4070 n3        1 2KE     -0.950000
     37 H1         -1.0930   -1.6460    0.8820 ha        1 2KE      0.174000
     38 H2         -0.0830    2.1900    3.4550 hc        1 2KE      0.188500
     39 H3          1.2790   -1.2980    2.0170 hc        1 2KE      0.180000
     40 H4          1.4440    1.4390   -4.4710 ha        1 2KE      0.143000
     41 H5          1.1030   -3.6240   -7.1160 ha        1 2KE      0.165000
     42 H6          0.7070    0.9640    4.5090 hc        1 2KE      0.188500
     43 H7          2.7940   -0.9360   -1.8190 hn        1 2KE      0.253000
     44 H8          4.6090    4.8510   -5.6140 hn        1 2KE      0.244000
     45 H9          4.9340    4.6290   -1.4790 ha        1 2KE      0.148000
     46 H10         3.6960    2.8880   -0.2470 ha        1 2KE      0.141000
     47 H11         0.8630    0.3530   -2.3950 ha        1 2KE      0.134000
     48 H12         3.3400    3.2180   -6.8960 hn        1 2KE      0.239000
     49 H13         2.4520    2.0290   -6.0900 hn        1 2KE      0.239000
     50 H14         2.4520    1.1310    0.8580 hn        1 2KE      0.255000
     51 H15         0.1480    0.1370   -0.4450 h1        1 2KE      0.111000
     52 H16        -1.5230   -0.2070   -2.2750 ha        1 2KE      0.001500
     53 H17        -1.4450    0.4620   -2.3450 ha        1 2KE      0.001500
     54 H18        -4.7210   -2.8480    2.7540 ha        1 2KE      0.132500
     55 H19        -3.2370   -1.0040    0.6810 h4        1 2KE      0.136000
     56 H20        -5.0400   -2.7850    0.9190 ha        1 2KE      0.132500
     57 H21         3.2770    0.9710    6.0000 ha        1 2KE      0.224000
     58 H22        -3.4700    0.8750    6.5500 ha        1 2KE      0.001500
     59 H23        -2.9850    1.2150    6.8790 ha        1 2KE      0.001500
     60 H24        -0.8420    0.6410    6.8310 hc        1 2KE      0.104667
     61 H25        -0.1900    1.4150    8.3430 hc        1 2KE      0.104667
     62 H26        -0.0910   -0.3880    8.1330 hc        1 2KE      0.104667
     63 H27         3.5400   -2.9000   -2.7190 h1        1 2KE      0.105000
     64 H28         2.5970   -3.8350   -1.4490 h1        1 2KE      0.105000
     65 H29         0.4850   -3.4300   -2.5660 hc        1 2KE      0.204000
     66 H30         1.7980   -5.5850   -5.7670 ha        1 2KE      0.153000
     67 H31         2.0430   -5.3950   -3.2800 ha        1 2KE      0.145000
     68 H32        -0.6960   -0.1640   -4.4370 hn        1 2KE      0.251000
     69 H33        -1.6530   -0.2710   -5.7840 hn        1 2KE      0.251000
     70 O16         0.6600   -2.6020   -0.1980 o         1 2KE     -0.403000
     71 N12         2.8960    2.9230   -6.0600 n3        1 2KE     -0.366000
     72 S37         0.5040   -0.8960   -6.2480 s6        1 2KE      2.906000
     73 C27         1.2560    0.7380    6.9780 c1        1 2KE     -0.160000
@<TRIPOS>BOND
     1    1    2 1   
     2    1    4 1   
     3    1   37 1   
     4    2    7 1   
     5    2   22 1   
     6    2   39 1   
     7    3   11 1   
     8    3   22 1   
     9    3   70 1   
    10    4    5 1   
    11    4   24 1   
    12    5    6 1   
    13    5   23 1   
    14    6    7 1   
    15    6   38 1   
    16    6   42 1   
    17    8   16 1   
    18    8   20 1   
    19    8   40 1   
    20    9   10 1   
    21    9   32 1   
    22    9   41 1   
    23   10   31 1   
    24   10   72 1   
    25   11   29 1   
    26   11   43 1   
    27   12   13 1   
    28   12   17 1   
    29   12   44 1   
    30   13   14 1   
    31   14   15 1   
    32   14   45 1   
    33   15   16 1   
    34   15   18 1   
    35   16   17 1   
    36   17   71 1   
    37   18   19 1   
    38   18   46 1   
    39   19   20 1   
    40   19   21 1   
    41   20   47 1   
    42   21   22 1   
    43   21   50 1   
    44   22   51 1   
    45   24   25 1   
    46   25   26 1   
    47   25   55 1   
    48   26   54 1   
    49   26   56 1   
    50   27   57 1   
    51   27   73 1   
    52   28   60 1   
    53   28   61 1   
    54   28   62 1   
    55   28   73 1   
    56   29   30 1   
    57   29   63 1   
    58   29   64 1   
    59   30   31 1   
    60   30   33 1   
    61   30   65 1   
    62   32   33 1   
    63   32   66 1   
    64   33   67 1   
    65   34   72 1   
    66   35   72 1   
    67   36   68 1   
    68   36   69 1   
    69   36   72 1   
    70   48   71 1   
    71   49   71 1   
    72   52   53 1   
    73   58   59 1   
@<TRIPOS>SUBSTRUCTURE
     1 2KE         1 TEMP              0 ****  ****    0 ROOT
