@<TRIPOS>MOLECULE
molecule
   80    83     1     0     0
SMALL
bcc


@<TRIPOS>ATOM
      1 C13          0.0000     0.0000     0.0000 ca         1 2KF      -0.124300
      2 C18          2.0760     0.0000     1.2000 ca         1 2KF       0.118100
      3 C17          1.3830     0.0000     0.0000 ca         1 2KF      -0.194000
      4 C19          1.3760    -0.0010     2.4040 ca         1 2KF       0.131100
      5 C20         -0.0090    -0.0010     2.3970 ca         1 2KF      -0.192000
      6 C21         -0.6940    -0.0000     1.1950 ca         1 2KF      -0.092000
      7 C12         -0.7510     0.0070    -1.3060 c3         1 2KF       0.222800
      8 C34          2.2270     5.6130    -3.4500 ca         1 2KF      -0.030000
      9 C33          2.6420     6.3380    -2.3500 ca         1 2KF      -0.143000
     10 C1          -3.5970    -6.6570    -1.7450 ca         1 2KF       0.480200
     11 N2          -2.3960    -7.1220    -2.0640 nb         1 2KF      -0.801000
     12 C3          -1.3350    -6.3460    -2.1660 ca         1 2KF       0.736200
     13 C4          -1.4560    -4.9580    -1.9330 ca         1 2KF      -0.249300
     14 C5          -2.7310    -4.4400    -1.5900 ca         1 2KF       0.074000
     15 C6          -3.8150    -5.3350    -1.5060 ca         1 2KF      -0.324300
     16 C7          -0.3570    -4.0930    -2.0230 ca         1 2KF      -0.054000
     17 C8          -0.5230    -2.7630    -1.7830 ca         1 2KF      -0.206000
     18 C9          -1.7770    -2.2420    -1.4450 ca         1 2KF       0.228600
     19 C10         -2.8790    -3.0680    -1.3530 ca         1 2KF      -0.227000
     20 N11         -1.9160    -0.8760    -1.2040 nu         1 2KF      -0.804600
     21 C14         -1.2100     1.4090    -1.6140 c          1 2KF       0.653100
     22 O15         -2.3930     1.6470    -1.7370 o          1 2KF      -0.588100
     23 N16         -0.3060     2.3980    -1.7540 ns         1 2KF      -0.588900
     24 O22          3.4360    -0.0010     1.2020 os         1 2KF      -0.311900
     25 O23          2.0520    -0.0020     3.5840 os         1 2KF      -0.308900
     26 C25          2.0590    -0.5010     5.9490 c3         1 2KF      -0.104600
     27 C26          0.9520     1.5580     5.0670 c3         1 2KF      -0.104600
     28 C28          5.6020    -0.0000     0.1330 c3         1 2KF      -0.092100
     29 C29         -0.7510     3.7620    -2.0530 c3         1 2KF       0.104300
     30 C30          0.4460     4.6700    -2.1580 ca         1 2KF      -0.023300
     31 C31          0.8610     5.3960    -1.0570 ca         1 2KF      -0.132000
     32 C32          1.9590     6.2300    -1.1530 ca         1 2KF      -0.079000
     33 C35          1.1290     4.7790    -3.3540 ca         1 2KF      -0.279500
     34 S36          0.5990     3.8540    -4.7580 sy         1 2KF       1.201300
     35 O37         -0.8040     4.0770    -4.8150 o          1 2KF      -0.616300
     36 O38          1.4520     4.2910    -5.8070 o          1 2KF      -0.616300
     37 C39          0.9530     2.1300    -4.3240 c3         1 2KF      -0.214900
     38 C40          0.6690     1.2310    -5.5300 c3         1 2KF      -0.073600
     39 C41          2.4240     1.9960    -3.9240 c3         1 2KF      -0.073600
     40 H1           1.9250     0.0000    -0.9380 ha         1 2KF       0.133000
     41 H2          -0.5560    -0.0010     3.3320 ha         1 2KF       0.149000
     42 H3          -1.7770    -0.0000     1.1900 ha         1 2KF       0.144000
     43 H4           0.3480    -0.4610     4.6480 h1         1 2KF       0.046700
     44 H5          -0.1010    -0.3420    -2.0990 h1         1 2KF       0.076700
     45 H6           2.7630     5.6980    -4.3880 ha         1 2KF       0.162000
     46 H7           3.7950     0.8850    -0.6230 h1         1 2KF       0.028200
     47 H8           3.7950    -0.8840    -0.6240 h1         1 2KF       0.028200
     48 H9           3.5020     6.9920    -2.4250 ha         1 2KF       0.140000
     49 H10         -4.4280    -7.3480    -1.6770 h4         1 2KF       0.016100
     50 H11         -4.8050    -4.9790    -1.2470 ha         1 2KF       0.137000
     51 H12          0.6200    -4.4810    -2.2830 ha         1 2KF       0.120000
     52 H13          0.3300    -2.0990    -1.8500 ha         1 2KF       0.126000
     53 H14         -3.8480    -2.6600    -1.0910 ha         1 2KF       0.140000
     54 H15         -2.8180    -0.4930    -1.0010 hn         1 2KF       0.464800
     55 H16          0.6650     2.2140    -1.5950 hn         1 2KF       0.321500
     56 H17          1.4570    -0.4540     6.8480 hc         1 2KF       0.047200
     57 H18          2.3020    -1.5330     5.7290 hc         1 2KF       0.047200
     58 H19          2.9730     0.0620     6.0970 hc         1 2KF       0.047200
     59 H20          1.8650     2.1410     5.0260 hc         1 2KF       0.047200
     60 H21          0.2560     1.9250     4.3230 hc         1 2KF       0.047200
     61 H22          0.5100     1.6500     6.0520 hc         1 2KF       0.047200
     62 H23          6.0950    -0.0430    -0.8310 hc         1 2KF       0.049700
     63 H24          5.8850    -0.8650     0.7210 hc         1 2KF       0.049700
     64 H25          5.9010     0.9030     0.6510 hc         1 2KF       0.049700
     65 H26         -1.2920     3.7670    -2.9910 h1         1 2KF       0.095200
     66 H27         -1.4010     4.1110    -1.2600 h1         1 2KF       0.095200
     67 H28          0.3250     5.3110    -0.1190 ha         1 2KF       0.142000
     68 H29          2.2840     6.7990    -0.2900 ha         1 2KF       0.138000
     69 H30          0.3240     1.8300    -3.4950 h1         1 2KF       0.119700
     70 H31          1.2680     1.5570    -6.3720 hc         1 2KF       0.050200
     71 H32         -0.3810     1.2940    -5.7880 hc         1 2KF       0.050200
     72 H33          0.9200     0.2070    -5.2840 hc         1 2KF       0.050200
     73 H34          2.6780     0.9470    -3.8260 hc         1 2KF       0.050200
     74 H35          2.5880     2.4970    -2.9770 hc         1 2KF       0.050200
     75 H36          3.0480     2.4490    -4.6840 hc         1 2KF       0.050200
     76 H37         -0.0210    -7.8720    -2.6680 hn         1 2KF       0.439800
     77 H38          0.6980    -6.2970    -2.5800 hn         1 2KF       0.439800
     78 N42         -0.1060    -6.8880    -2.5030 nv         1 2KF      -1.005500
     79 C24          1.2710     0.0900     4.7770 c3         1 2KF       0.133100
     80 C27          4.0860    -0.0000    -0.0700 c3         1 2KF       0.135400
@<TRIPOS>BOND
     1    35    34 2
     2    39    37 1
     3    37    34 1
     4    37    38 1
     5     8     9 ar
     6     8    33 ar
     7    34    33 1
     8    34    36 2
     9     9    32 ar
    10    33    30 ar
    11    32    31 ar
    12    30    31 ar
    13    30    29 1
    14    28    80 1
    15    22    21 2
    16    80    24 1
    17    29    23 1
    18    24     2 1
    19    21    23 1
    20    21     7 1
    21     3     2 ar
    22     3     1 ar
    23     2     4 ar
    24    20     7 1
    25    20    18 1
    26     7     1 1
    27     1     6 ar
    28    17    18 ar
    29    17    16 ar
    30     4    25 1
    31     4     5 ar
    32    25    79 1
    33    18    19 ar
    34     6     5 ar
    35    26    79 1
    36    16    13 ar
    37    79    27 1
    38    19    14 ar
    39    13    14 ar
    40    13    12 ar
    41    14    15 ar
    42    78    12 1
    43    12    11 ar
    44    15    10 ar
    45    11    10 ar
    46     3    40 1
    47     5    41 1
    48     6    42 1
    49    79    43 1
    50     7    44 1
    51     8    45 1
    52    80    46 1
    53    80    47 1
    54     9    48 1
    55    10    49 1
    56    15    50 1
    57    16    51 1
    58    17    52 1
    59    19    53 1
    60    20    54 1
    61    23    55 1
    62    26    56 1
    63    26    57 1
    64    26    58 1
    65    27    59 1
    66    27    60 1
    67    27    61 1
    68    28    62 1
    69    28    63 1
    70    28    64 1
    71    29    65 1
    72    29    66 1
    73    31    67 1
    74    32    68 1
    75    37    69 1
    76    38    70 1
    77    38    71 1
    78    38    72 1
    79    39    73 1
    80    39    74 1
    81    39    75 1
    82    78    76 1
    83    78    77 1
@<TRIPOS>SUBSTRUCTURE
     1 2KF         1 TEMP              0 ****  ****    0 ROOT
