@<TRIPOS>MOLECULE
molecule
   46    48     1     0     0
SMALL
bcc


@<TRIPOS>ATOM
      1 C1           0.0000     0.0000     0.0000 c          1 2KG       0.726500
      2 C2           1.5100     0.0000     0.0000 cy         1 2KG      -0.168000
      3 C3           1.4840     0.0000     1.5320 cy         1 2KG       0.175000
      4 C6           2.1140    -1.2740    -0.5940 c3         1 2KG      -0.070100
      5 C7           2.1140     1.2720    -0.5980 c3         1 2KG      -0.070100
      6 C8           2.0260    -1.2600     2.1570 ca         1 2KG      -0.131300
      7 C11          3.8870    -2.5580     2.9430 ca         1 2KG      -0.218000
      8 C12          3.0230    -3.5740     3.3040 ca         1 2KG      -0.084000
      9 C15         -2.3330     0.0020     1.8610 ca         1 2KG      -0.069000
     10 C16         -3.3570    -0.0030     2.7890 ca         1 2KG      -0.269500
     11 C17         -3.0670    -0.0090     4.1410 ca         1 2KG      -0.064000
     12 C18         -1.7520    -0.0100     4.5690 ca         1 2KG      -0.124000
     13 C19         -0.7240    -0.0050     3.6470 ca         1 2KG      -0.123000
     14 C21          5.6310    -0.6080     2.2580 c3         1 2KG       0.127700
     15 C23         -5.4640    -1.7580     2.1020 c3         1 2KG      -0.227300
     16 O25         -5.7470     0.5980     3.3210 o          1 2KG      -0.614800
     17 S22         -5.0340    -0.0020     2.2490 sy         1 2KG       1.191300
     18 O24         -4.9880     0.6090     0.9660 o          1 2KG      -0.614800
     19 C9          -1.0120     0.0000     2.2880 ca         1 2KG       0.049600
     20 N4           0.0270     0.0000     1.3510 nj         1 2KG      -0.401000
     21 O5          -0.8660     0.0040    -0.8480 o          1 2KG      -0.571500
     22 C14          1.1660    -2.2800     2.5150 ca         1 2KG      -0.082000
     23 C13          1.6640    -3.4350     3.0880 ca         1 2KG      -0.164000
     24 C10          3.3900    -1.3970     2.3690 ca         1 2KG       0.151100
     25 H1           1.8580     0.9210     1.9630 h1         1 2KG       0.093700
     26 H2           1.5880    -2.1380    -0.2060 hc         1 2KG       0.048200
     27 H3           2.0190    -1.2500    -1.6730 hc         1 2KG       0.048200
     28 H4           3.1610    -1.3370    -0.3250 hc         1 2KG       0.048200
     29 H5           1.8350     1.3480    -1.6420 hc         1 2KG       0.048200
     30 H6           1.7410     2.1360    -0.0610 hc         1 2KG       0.048200
     31 H7           3.1930     1.2330    -0.5140 hc         1 2KG       0.048200
     32 H8           4.9520    -2.6670     3.1110 ha         1 2KG       0.139000
     33 H9           3.4100    -4.4810     3.7530 ha         1 2KG       0.134000
     34 H10         -2.5610     0.0060     0.8020 ha         1 2KG       0.178000
     35 H11         -3.8720    -0.0130     4.8660 ha         1 2KG       0.150000
     36 H12         -1.5290    -0.0140     5.6290 ha         1 2KG       0.138000
     37 H13          0.3060    -0.0060     3.9830 ha         1 2KG       0.143000
     38 H14          6.1920     0.2550     1.9210 h1         1 2KG       0.044033
     39 H15          5.8060    -0.7620     3.3160 h1         1 2KG       0.044033
     40 H16          5.9520    -1.4840     1.7080 h1         1 2KG       0.044033
     41 H17         -6.5210    -1.8540     1.8860 h1         1 2KG       0.098033
     42 H18         -4.8890    -2.2050     1.2990 h1         1 2KG       0.098033
     43 H19         -5.2380    -2.2640     3.0320 h1         1 2KG       0.098033
     44 H20          0.1010    -2.1740     2.3470 ha         1 2KG       0.150000
     45 H21          0.9880    -4.2330     3.3690 ha         1 2KG       0.136000
     46 O20          4.2390    -0.3970     2.0110 os         1 2KG      -0.332900
@<TRIPOS>BOND
     1    18    17 2   
     2    15    17 1   
     3    17    16 2   
     4    17    10 1   
     5    11    10 ar  
     6    11    12 ar  
     7    10     9 ar  
     8    12    13 ar  
     9     9    19 ar  
    10    13    19 ar  
    11    19    20 1   
    12    21     1 2   
    13    20     1 1   
    14    20     3 1   
    15     1     2 1   
    16    22    23 ar  
    17    22     6 ar  
    18    23     8 ar  
    19     3     6 1   
    20     3     2 1   
    21     6    24 ar  
    22     2     4 1   
    23     2     5 1   
    24     8     7 ar  
    25    24     7 ar  
    26    24    46 1   
    27    46    14 1   
    28     3    25 1   
    29     4    26 1   
    30     4    27 1   
    31     4    28 1   
    32     5    29 1   
    33     5    30 1   
    34     5    31 1   
    35     7    32 1   
    36     8    33 1   
    37     9    34 1   
    38    11    35 1   
    39    12    36 1   
    40    13    37 1   
    41    14    38 1   
    42    14    39 1   
    43    14    40 1   
    44    15    41 1   
    45    15    42 1   
    46    15    43 1   
    47    22    44 1   
    48    23    45 1   
@<TRIPOS>SUBSTRUCTURE
     1 2KG         1 TEMP              0 ****  ****    0 ROOT
