@<TRIPOS>MOLECULE
molecule
   41    42     1     0     0
SMALL
bcc


@<TRIPOS>ATOM
      1 PA           0.0000     0.0000     0.0000 p5         1 2KH       1.236700
      2 O1A          1.4800     0.0000     0.0000 o          1 2KH      -0.783500
      3 O2A         -0.5360     0.0000     1.5170 o          1 2KH      -0.783500
      4 N3A         -0.5610    -1.3740    -0.7940 n7         1 2KH      -0.923400
      5 O5'         -0.5360     1.3140    -0.7590 os         1 2KH      -0.571200
      6 PB          -0.0210    -2.7740    -0.0310 p5         1 2KH       1.383700
      7 O1B          1.5890    -2.7990    -0.0300 o          1 2KH      -0.795500
      8 O2B         -0.5150    -2.7960     1.3640 o          1 2KH      -0.795500
      9 O3B         -0.5780    -4.0630    -0.8180 os         1 2KH      -0.735800
     10 PG          -0.4290    -5.6530    -0.6070 p5         1 2KH       1.330900
     11 O1G         -0.7690    -6.4100    -1.9860 o          1 2KH      -0.872167
     12 O2G          0.9580    -5.9680    -0.1980 o          1 2KH      -0.872167
     13 O3G         -1.4500    -6.1400     0.5380 o          1 2KH      -0.872167
     14 C5'         -0.0700     1.7130    -2.0500 c3         1 2KH       0.215400
     15 C4'         -0.7830     2.9980    -2.4750 c3         1 2KH       0.121100
     16 O4'         -0.3910     4.0820    -1.6150 os         1 2KH      -0.350600
     17 C1'         -0.3700     5.2760    -2.4250 c3         1 2KH       0.314500
     18 C2'          0.2440     4.7940    -3.7650 c3         1 2KH       0.073100
     19 O2'         -0.1640     5.6370    -4.8450 oh         1 2KH      -0.601800
     20 C3'         -0.3660     3.3780    -3.9090 c3         1 2KH       0.088100
     21 O3'         -1.5060     3.4100    -4.7690 oh         1 2KH      -0.600800
     22 N1           0.4770     6.3020    -1.8100 n          1 2KH      -0.336000
     23 C6          -0.0310     7.5530    -1.5830 cc         1 2KH      -0.084400
     24 C2           1.7430     6.0050    -1.4700 c          1 2KH       0.800500
     25 O2           2.1720     4.8860    -1.6760 o          1 2KH      -0.637500
     26 N3           2.5420     6.9280    -0.9030 ns         1 2KH      -0.570500
     27 C4           2.0810     8.1730    -0.6680 c          1 2KH       0.687700
     28 O4           2.8040     9.0090    -0.1550 o          1 2KH      -0.738500
     29 C5           0.7490     8.4980    -1.0170 cd         1 2KH      -0.400200
     30 H2          -1.4550    -1.3630    -1.2440 hn         1 2KH       0.358800
     31 H6           0.9990     1.8900    -2.0090 h1         1 2KH       0.033700
     32 H7          -0.2790     0.9290    -2.7680 h1         1 2KH       0.033700
     33 H8          -1.8570     2.8630    -2.4290 h1         1 2KH       0.064700
     34 H9          -1.3760     5.6460    -2.5810 h2         1 2KH       0.068700
     35 H10          1.3230     4.7400    -3.6940 h1         1 2KH       0.084700
     36 H11          0.5640     5.7750    -5.4280 ho         1 2KH       0.382000
     37 H12          0.3780     2.6840    -4.2810 h1         1 2KH       0.058700
     38 H13         -1.3830     2.8000    -5.4780 ho         1 2KH       0.389000
     39 H14         -1.0190     7.8110    -1.9450 h4         1 2KH       0.131000
     40 H15          3.4820     6.6890    -0.6560 hn         1 2KH       0.339500
     41 H16          0.3110     9.4280    -0.6750 ha         1 2KH       0.132000
@<TRIPOS>BOND
     1    19    18 1
     2    21    20 1
     3    18    20 1
     4    18    17 1
     5    25    24 2
     6    20    15 1
     7    17    22 1
     8    17    16 1
     9    24    22 1
    10    24    26 1
    11    15    16 1
    12    15    14 1
    13    22    23 1
    14    26    27 1
    15    14     5 1
    16    23    29 2
    17    27    29 1
    18    27    28 2
    19     8     6 1
    20     5     1 1
    21     4     6 1
    22     4     1 1
    23     6     7 1
    24     6     9 1
    25     1     2 1
    26     1     3 1
    27     9    10 1
    28    10    12 1
    29    10    11 1
    30    10    13 1
    31     4    30 1
    32    14    31 1
    33    14    32 1
    34    15    33 1
    35    17    34 1
    36    18    35 1
    37    19    36 1
    38    20    37 1
    39    21    38 1
    40    23    39 1
    41    26    40 1
    42    29    41 1
@<TRIPOS>SUBSTRUCTURE
     1 2KH         1 TEMP              0 ****  ****    0 ROOT
