@<TRIPOS>MOLECULE
molecule
   33    32     1     0     0
SMALL
bcc


@<TRIPOS>ATOM
      1 OA2          0.0000     0.0000     0.0000 o          1 2KJ      -0.774300
      2 C            1.2090     0.0000     0.0000 c          1 2KJ       0.868600
      3 OA1          1.8800     0.0000     1.1620 o          1 2KJ      -0.774300
      4 CA           1.9620    -0.0070    -1.3050 c3         1 2KJ      -0.018500
      5 N            1.0790    -0.4870    -2.3780 nz         1 2KJ      -0.792600
      6 CB           2.4330     1.4120    -1.6290 c3         1 2KJ      -0.085400
      7 CG           3.3020     1.3850    -2.8880 c3         1 2KJ      -0.125400
      8 CD           3.7740     2.8030    -3.2120 c3         1 2KJ       0.272800
      9 NE           4.6070     2.7790    -4.4160 nu         1 2KJ      -0.903200
     10 CZ           5.1490     3.9440    -4.9030 c2         1 2KJ       0.876100
     11 NH2          4.9200     5.0730    -4.2930 n2         1 2KJ      -0.950100
     12 NH1          5.9300     3.9210    -6.0340 nu         1 2KJ      -0.758700
     13 OH           6.4870     5.1220    -6.5360 os         1 2KJ      -0.148100
     14 C2           7.2760     4.9500    -7.7140 c3         1 2KJ       0.111400
     15 C1           7.8240     6.3060    -8.1640 c3         1 2KJ      -0.087100
     16 H2           2.8200    -0.6630    -1.2230 hx         1 2KJ       0.103700
     17 H3           0.5060     0.2670    -2.7000 hn         1 2KJ       0.438800
     18 H4           1.6340    -0.8320    -3.1360 hn         1 2KJ       0.438800
     19 H6           1.5730     2.0490    -1.7980 hc         1 2KJ       0.091200
     20 H7           3.0120     1.7990    -0.7990 hc         1 2KJ       0.091200
     21 H8           4.1620     0.7480    -2.7190 hc         1 2KJ       0.031200
     22 H9           2.7240     0.9980    -3.7180 hc         1 2KJ       0.031200
     23 H10          4.3530     3.1900    -2.3810 h1         1 2KJ       0.064200
     24 H11          2.9150     3.4400    -3.3810 h1         1 2KJ       0.064200
     25 H12          4.7830     1.9120    -4.8850 hn         1 2KJ       0.425800
     26 H13          5.3140     5.9230    -4.6470 hn         1 2KJ       0.421400
     27 H15          6.1050     3.0540    -6.5030 hn         1 2KJ       0.427800
     28 H16          6.6620     4.5290    -8.5020 h1         1 2KJ       0.032700
     29 H17          8.1000     4.2790    -7.5020 h1         1 2KJ       0.032700
     30 H18          8.4380     6.7260    -7.3770 hc         1 2KJ       0.052033
     31 H19          7.0000     6.9760    -8.3760 hc         1 2KJ       0.052033
     32 H20          8.4230     6.1750    -9.0580 hc         1 2KJ       0.052033
     33 HN3          0.4950    -1.2190    -2.0260 hn         1 2KJ       0.438800
@<TRIPOS>BOND
     1     5     4 1   
     2     1     2 1   
     3     4     2 1   
     4     4     6 1   
     5     2     3 1   
     6     7     6 1   
     7     7     8 1   
     8     9     8 1   
     9     9    10 1   
    10    11    10 2   
    11    10    12 1   
    12    12    13 1   
    13    13    14 1   
    14    14    15 1   
    15     4    16 1   
    16     5    17 1   
    17     5    18 1   
    18     6    19 1   
    19     6    20 1   
    20     7    21 1   
    21     7    22 1   
    22     8    23 1   
    23     8    24 1   
    24     9    25 1   
    25    11    26 1   
    26    12    27 1   
    27    14    28 1   
    28    14    29 1   
    29    15    30 1   
    30    15    31 1   
    31    15    32 1   
    32    33     5 1   
@<TRIPOS>SUBSTRUCTURE
     1 2KJ         1 TEMP              0 ****  ****    0 ROOT
