@<TRIPOS>MOLECULE
2KJ
   33    32     1     0     0
SMALL
bcc


@<TRIPOS>ATOM
      1 OA2          0.0000     0.0000     0.0000 o          1 2KJ      -0.814800
      2 C            1.2090     0.0000     0.0000 c          1 2KJ       0.955600
      3 OA1          1.8800     0.0000     1.1620 o          1 2KJ      -0.814800
      4 CA           1.9620    -0.0070    -1.3050 c3         1 2KJ      -0.202500
      5 N            1.0790    -0.4870    -2.3780 nz         1 2KJ       0.079400
      6 CB           2.4330     1.4120    -1.6290 c3         1 2KJ      -0.016400
      7 CG           3.3020     1.3850    -2.8880 c3         1 2KJ      -0.056400
      8 CD           3.7740     2.8030    -3.2120 c3         1 2KJ       0.188800
      9 NE           4.6070     2.7790    -4.4160 nu         1 2KJ      -0.566200
     10 CZ           5.1490     3.9440    -4.9030 c2         1 2KJ       0.559100
     11 NH2          4.9200     5.0730    -4.2930 n2         1 2KJ      -0.828100
     12 NH1          5.9300     3.9210    -6.0340 nu         1 2KJ      -0.283700
     13 OH           6.4870     5.1220    -6.5360 os         1 2KJ      -0.207100
     14 C2           7.2760     4.9500    -7.7140 c3         1 2KJ       0.195400
     15 C1           7.8240     6.3060    -8.1640 c3         1 2KJ       0.009900
     16 H2           2.8200    -0.6630    -1.2230 hx         1 2KJ       0.087700
     17 H3           0.4980    -1.2220    -2.0280 hn         1 2KJ       0.211467
     18 H4           0.5050     0.2670    -2.7000 hn         1 2KJ       0.211467
     19 H6           3.0120     1.7990    -0.7990 hc         1 2KJ       0.058200
     20 H7           1.5730     2.0490    -1.7980 hc         1 2KJ       0.058200
     21 H8           2.7240     0.9980    -3.7180 hc         1 2KJ       0.007200
     22 H9           4.1620     0.7480    -2.7190 hc         1 2KJ       0.007200
     23 H10          2.9150     3.4400    -3.3810 h1         1 2KJ       0.025200
     24 H11          4.3530     3.1900    -2.3810 h1         1 2KJ       0.025200
     25 H12          4.7830     1.9120    -4.8850 hn         1 2KJ       0.281800
     26 H13          4.3520     5.0910    -3.4690 hn         1 2KJ       0.329400
     27 H15          6.1050     3.0540    -6.5030 hn         1 2KJ       0.269800
     28 H16          8.1000     4.2790    -7.5020 h1         1 2KJ      -0.011300
     29 H17          6.6620     4.5290    -8.5020 h1         1 2KJ      -0.011300
     30 H18          8.4370     6.7270    -7.3760 hc         1 2KJ       0.013033
     31 H19          8.4240     6.1740    -9.0570 hc         1 2KJ       0.013033
     32 H20          7.0000     6.9760    -8.3780 hc         1 2KJ       0.013033
     33 HN3          1.6340    -0.8250    -3.1400 hn         1 2KJ       0.211467
@<TRIPOS>BOND
     1     1     2 1   
     2     2     3 1   
     3     2     4 1   
     4     4     5 1   
     5     4     6 1   
     6     4    16 1   
     7     5    17 1   
     8     5    18 1   
     9     5    33 1   
    10     6     7 1   
    11     6    19 1   
    12     6    20 1   
    13     7     8 1   
    14     7    21 1   
    15     7    22 1   
    16     8     9 1   
    17     8    23 1   
    18     8    24 1   
    19     9    10 1   
    20     9    25 1   
    21    10    11 2   
    22    10    12 1   
    23    11    26 1   
    24    12    13 1   
    25    12    27 1   
    26    13    14 1   
    27    14    15 1   
    28    14    28 1   
    29    14    29 1   
    30    15    30 1   
    31    15    31 1   
    32    15    32 1   
@<TRIPOS>SUBSTRUCTURE
     1 2KJ         1 TEMP              0 ****  ****    0 ROOT
