@<TRIPOS>MOLECULE
molecule
   54    57     1     0     0
SMALL
bcc


@<TRIPOS>ATOM
      1 O13          0.0000     0.0000     0.0000 o          1 2KL      -0.600100
      2 C12          1.2170     0.0000     0.0000 c          1 2KL       0.700300
      3 N14          1.8910     0.0000     1.1670 ns         1 2KL      -0.579900
      4 C15          1.1580     0.0000     2.4360 c3         1 2KL       0.112000
      5 C16          2.1530     0.0000     3.5990 c3         1 2KL      -0.113100
      6 C8           1.9510    -0.0070    -1.2710 cc         1 2KL      -0.125600
      7 S7           3.7010    -0.0080    -1.4130 ss         1 2KL      -0.139900
      8 C9           1.3780    -0.0180    -2.4820 cd         1 2KL      -0.043200
      9 C5           2.2600    -0.0230    -3.5660 ca         1 2KL      -0.342400
     10 C6           3.6060    -0.0160    -3.1700 ca         1 2KL       0.538600
     11 N3           4.5620    -0.0200    -4.1020 nb         1 2KL      -0.727000
     12 C2           4.2600    -0.0260    -5.3880 ca         1 2KL       0.955900
     13 N11          5.2840    -0.0310    -6.3180 nv         1 2KL      -1.050500
     14 N1           3.0050    -0.0280    -5.8160 nb         1 2KL      -0.731000
     15 C4           1.9880    -0.0340    -4.9650 cp         1 2KL       0.577800
     16 C10          0.5940    -0.0430    -5.4600 cp         1 2KL      -0.112500
     17 C17         -0.3270    -0.9510    -4.9360 ca         1 2KL      -0.188000
     18 C21          0.1950     0.8590    -6.4470 ca         1 2KL       0.032400
     19 Cl1          1.3350     1.9950    -7.0970 cl         1 2KL      -0.076400
     20 C20         -1.1080     0.8480    -6.9070 ca         1 2KL      -0.087000
     21 C19         -2.0190    -0.0570    -6.3910 ca         1 2KL       0.012400
     22 Cl2         -3.6540    -0.0660    -6.9730 cl         1 2KL      -0.080400
     23 C18         -1.6310    -0.9550    -5.4040 ca         1 2KL       0.152100
     24 O24         -2.5300    -1.8380    -4.8970 os         1 2KL      -0.313900
     25 C25         -2.0630    -2.7330    -3.8850 c3         1 2KL       0.133400
     26 C26         -3.2090    -3.6440    -3.4400 c3         1 2KL       0.160800
     27 N27         -3.6150    -4.5030    -4.5610 n3         1 2KL      -0.721600
     28 C28         -4.5470    -5.5530    -4.1110 c3         1 2KL       0.154300
     29 C31         -4.2730    -3.7120    -5.6230 c3         1 2KL       0.154300
     30 C30         -5.3400    -4.6630    -6.2200 c3         1 2KL      -0.099400
     31 C29         -5.8310    -5.4160    -4.9550 c3         1 2KL      -0.099400
     32 H14          2.8910     0.0220     1.1670 hn         1 2KL       0.315500
     33 H151         0.5350    -0.8840     2.4930 h1         1 2KL       0.055200
     34 H152         0.5360     0.8850     2.4930 h1         1 2KL       0.055200
     35 H161         2.7790    -0.8820     3.5390 hc         1 2KL       0.044367
     36 H162         2.7720     0.8870     3.5450 hc         1 2KL       0.044367
     37 H163         1.6110    -0.0050     4.5370 hc         1 2KL       0.044367
     38 H9           0.3020    -0.0230    -2.6120 ha         1 2KL       0.175000
     39 H111         5.7770     0.8160    -6.5250 hn         1 2KL       0.449800
     40 H112         5.5210    -0.8770    -6.7970 hn         1 2KL       0.449800
     41 H17         -0.0240    -1.6510    -4.1670 ha         1 2KL       0.158000
     42 H20         -1.4170     1.5490    -7.6720 ha         1 2KL       0.164000
     43 H251        -1.2550    -3.3360    -4.2820 h1         1 2KL       0.048200
     44 H252        -1.7050    -2.1630    -3.0370 h1         1 2KL       0.048200
     45 H261        -4.0510    -3.0390    -3.1260 h1         1 2KL       0.049200
     46 H262        -2.8790    -4.2610    -2.6130 h1         1 2KL       0.049200
     47 H281        -4.7800    -5.4130    -3.0620 h1         1 2KL       0.048950
     48 H282        -4.1050    -6.5290    -4.2700 h1         1 2KL       0.048950
     49 H311        -4.7460    -2.8350    -5.1990 h1         1 2KL       0.048950
     50 H312        -3.5530    -3.4310    -6.3820 h1         1 2KL       0.048950
     51 H291        -6.2200    -6.3920    -5.2200 hc         1 2KL       0.049950
     52 H292        -6.5740    -4.8300    -4.4280 hc         1 2KL       0.049950
     53 H301        -6.1480    -4.1010    -6.6720 hc         1 2KL       0.049950
     54 H302        -4.8920    -5.3500    -6.9280 hc         1 2KL       0.049950
@<TRIPOS>BOND
     1     1     2 2   
     2     2     3 1   
     3     2     6 1   
     4     3     4 1   
     5     4     5 1   
     6     6     7 1   
     7     6     8 2   
     8     7    10 1   
     9     8     9 1   
    10     9    10 ar  
    11     9    15 ar  
    12    10    11 ar  
    13    11    12 ar  
    14    12    13 1   
    15    12    14 ar  
    16    14    15 ar  
    17    15    16 1   
    18    16    17 ar  
    19    16    18 ar  
    20    17    23 ar  
    21    18    19 1   
    22    18    20 ar  
    23    20    21 ar  
    24    21    22 1   
    25    21    23 ar  
    26    23    24 1   
    27    24    25 1   
    28    25    26 1   
    29    26    27 1   
    30    27    28 1   
    31    27    29 1   
    32    28    31 1   
    33    29    30 1   
    34    30    31 1   
    35     3    32 1   
    36     4    33 1   
    37     4    34 1   
    38     5    35 1   
    39     5    36 1   
    40     5    37 1   
    41     8    38 1   
    42    13    39 1   
    43    13    40 1   
    44    17    41 1   
    45    20    42 1   
    46    25    43 1   
    47    25    44 1   
    48    26    45 1   
    49    26    46 1   
    50    28    47 1   
    51    28    48 1   
    52    29    49 1   
    53    29    50 1   
    54    31    51 1   
    55    31    52 1   
    56    30    53 1   
    57    30    54 1   
@<TRIPOS>SUBSTRUCTURE
     1 2KL         1 TEMP              0 ****  ****    0 ROOT
