@<TRIPOS>MOLECULE
molecule
   42    42     1     0     0
SMALL
bcc


@<TRIPOS>ATOM
      1 C11          0.0000     0.0000     0.0000 c3         1 2KN      -0.113100
      2 C10          1.5300     0.0000     0.0000 c3         1 2KN       0.111333
      3 N9           2.0190     0.0000     1.3810 ns         1 2KN      -0.585233
      4 C7           3.3450     0.0000     1.6260 c          1 2KN       0.673033
      5 O8           4.1340    -0.0000     0.7020 o          1 2KN      -0.600767
      6 C4           3.8380     0.0000     3.0200 ca         1 2KN      -0.163267
      7 C5           2.9320    -0.0060     4.0810 ca         1 2KN      -0.030000
      8 C3           5.2090    -0.0010     3.2750 ca         1 2KN      -0.030000
      9 C2           5.6740    -0.0070     4.5890 ca         1 2KN      -0.163267
     10 C17          7.1280    -0.0100     4.8580 c          1 2KN       0.673033
     11 O18          7.5340    -0.0160     6.0030 o          1 2KN      -0.600767
     12 N19          8.0030    -0.0040     3.8330 ns         1 2KN      -0.585233
     13 C20          9.4440    -0.0060     4.1000 c3         1 2KN       0.111333
     14 C21         10.2080     0.0010     2.7750 c3         1 2KN      -0.113100
     15 C1           4.7690    -0.0130     5.6480 ca         1 2KN      -0.030000
     16 C6           3.3980    -0.0110     5.3950 ca         1 2KN      -0.163267
     17 C12          2.4380    -0.0180     6.5190 c          1 2KN       0.673033
     18 O13          2.8440    -0.0240     7.6650 o          1 2KN      -0.600767
     19 N14          1.1130    -0.0160     6.2740 ns         1 2KN      -0.585233
     20 C15          0.1610    -0.0220     7.3870 c3         1 2KN       0.111333
     21 C16         -1.2670    -0.0180     6.8390 c3         1 2KN      -0.113100
     22 H1          -0.3610    -0.0080    -1.0210 hc         1 2KN       0.043144
     23 H2          -0.3610     0.8890     0.5030 hc         1 2KN       0.043144
     24 H3          -0.3610    -0.8800     0.5180 hc         1 2KN       0.043144
     25 H4           1.8910    -0.8840    -0.5110 h1         1 2KN       0.055700
     26 H5           1.8910     0.8840    -0.5110 h1         1 2KN       0.055700
     27 H6           1.3700     0.0360     2.1420 hn         1 2KN       0.312167
     28 H7           1.8670    -0.0040     3.8830 ha         1 2KN       0.155000
     29 H8           5.9130     0.0010     2.4510 ha         1 2KN       0.155000
     30 H9           7.6690     0.0290     2.8900 hn         1 2KN       0.312167
     31 H10          9.7060    -0.8930     4.6630 h1         1 2KN       0.055700
     32 H11          9.7060     0.8760     4.6720 h1         1 2KN       0.055700
     33 H12          9.9410    -0.8770     2.1990 hc         1 2KN       0.043144
     34 H13         11.2730    -0.0070     2.9720 hc         1 2KN       0.043144
     35 H14          9.9520     0.8920     2.2140 hc         1 2KN       0.043144
     36 H15          5.1300    -0.0170     6.6690 ha         1 2KN       0.155000
     37 H16          0.7790    -0.0100     5.3300 hn         1 2KN       0.312167
     38 H17          0.3150    -0.9100     7.9880 h1         1 2KN       0.055700
     39 H18          0.3150     0.8590     7.9980 h1         1 2KN       0.055700
     40 H19         -1.4210    -0.8990     6.2270 hc         1 2KN       0.043144
     41 H20         -1.4200     0.8700     6.2370 hc         1 2KN       0.043144
     42 H21         -1.9700    -0.0230     7.6620 hc         1 2KN       0.043144
@<TRIPOS>BOND
     1     6     8 ar  
     2     6     7 ar  
     3     6     4 1   
     4    16    15 ar  
     5    16     7 ar  
     6    16    17 1   
     7     9    15 ar  
     8     9     8 ar  
     9     9    10 1   
    10    10    11 2   
    11    10    12 1   
    12    17    18 2   
    13    17    19 1   
    14     4     5 2   
    15     4     3 1   
    16    12    13 1   
    17    19    20 1   
    18     3     2 1   
    19    13    14 1   
    20    20    21 1   
    21     2     1 1   
    22     1    22 1   
    23     1    23 1   
    24     1    24 1   
    25     2    25 1   
    26     2    26 1   
    27     3    27 1   
    28     7    28 1   
    29     8    29 1   
    30    12    30 1   
    31    13    31 1   
    32    13    32 1   
    33    14    33 1   
    34    14    34 1   
    35    14    35 1   
    36    15    36 1   
    37    19    37 1   
    38    20    38 1   
    39    20    39 1   
    40    21    40 1   
    41    21    41 1   
    42    21    42 1   
@<TRIPOS>SUBSTRUCTURE
     1 2KN         1 TEMP              0 ****  ****    0 ROOT
