@<TRIPOS>MOLECULE
2KN
   42    42     1     0     0
SMALL
bcc


@<TRIPOS>ATOM
      1 C11          0.0000     0.0000     0.0000 c3         1 2KN      -0.008100
      2 C10          1.5300     0.0000     0.0000 c3         1 2KN       0.052333
      3 N9           2.0190     0.0000     1.3810 ns         1 2KN      -0.203233
      4 C7           3.3450     0.0000     1.6260 c          1 2KN       0.595700
      5 O8           4.1340    -0.0000     0.7020 o          1 2KN      -0.642100
      6 C4           3.8380     0.0000     3.0200 ca         1 2KN      -0.173600
      7 C5           2.9320    -0.0060     4.0810 ca         1 2KN      -0.003000
      8 C3           5.2090    -0.0010     3.2750 ca         1 2KN      -0.003000
      9 C2           5.6740    -0.0070     4.5890 ca         1 2KN      -0.173600
     10 C17          7.1280    -0.0100     4.8580 c          1 2KN       0.595700
     11 O18          7.5340    -0.0160     6.0030 o          1 2KN      -0.642100
     12 N19          8.0030    -0.0040     3.8330 ns         1 2KN      -0.203233
     13 C20          9.4440    -0.0060     4.1000 c3         1 2KN       0.052333
     14 C21         10.2080     0.0010     2.7750 c3         1 2KN      -0.008100
     15 C1           4.7690    -0.0130     5.6480 ca         1 2KN      -0.003000
     16 C6           3.3980    -0.0110     5.3950 ca         1 2KN      -0.173600
     17 C12          2.4380    -0.0180     6.5190 c          1 2KN       0.595700
     18 O13          2.8440    -0.0240     7.6650 o          1 2KN      -0.642100
     19 N14          1.1130    -0.0160     6.2740 ns         1 2KN      -0.203233
     20 C15          0.1610    -0.0220     7.3870 c3         1 2KN       0.052333
     21 C16         -1.2670    -0.0180     6.8390 c3         1 2KN      -0.008100
     22 H1          -0.3610    -0.0080    -1.0210 hc         1 2KN       0.008144
     23 H2          -0.3610     0.8890     0.5030 hc         1 2KN       0.008144
     24 H3          -0.3610    -0.8800     0.5180 hc         1 2KN       0.008144
     25 H4           1.8910    -0.8840    -0.5110 h1         1 2KN       0.026700
     26 H5           1.8910     0.8840    -0.5110 h1         1 2KN       0.026700
     27 H6           1.3700     0.0360     2.1420 hn         1 2KN       0.177500
     28 H7           1.8670    -0.0040     3.8830 ha         1 2KN       0.126333
     29 H8           5.9130     0.0010     2.4510 ha         1 2KN       0.126333
     30 H9           7.6690     0.0290     2.8900 hn         1 2KN       0.177500
     31 H10          9.7060    -0.8930     4.6630 h1         1 2KN       0.026700
     32 H11          9.7060     0.8760     4.6720 h1         1 2KN       0.026700
     33 H12          9.9410    -0.8770     2.1990 hc         1 2KN       0.008144
     34 H13         11.2730    -0.0070     2.9720 hc         1 2KN       0.008144
     35 H14          9.9520     0.8920     2.2140 hc         1 2KN       0.008144
     36 H15          5.1300    -0.0170     6.6690 ha         1 2KN       0.126333
     37 H16          0.7790    -0.0100     5.3300 hn         1 2KN       0.177500
     38 H17          0.3150    -0.9100     7.9880 h1         1 2KN       0.026700
     39 H18          0.3150     0.8590     7.9980 h1         1 2KN       0.026700
     40 H19         -1.4210    -0.8990     6.2270 hc         1 2KN       0.008144
     41 H20         -1.4200     0.8700     6.2370 hc         1 2KN       0.008144
     42 H21         -1.9700    -0.0230     7.6620 hc         1 2KN       0.008144
@<TRIPOS>BOND
     1     1     2 1   
     2     1    22 1   
     3     1    23 1   
     4     1    24 1   
     5     2     3 1   
     6     2    25 1   
     7     2    26 1   
     8     3     4 1   
     9     3    27 1   
    10     4     5 2   
    11     4     6 1   
    12     6     7 ar  
    13     6     8 ar  
    14     7    16 ar  
    15     7    28 1   
    16     8     9 ar  
    17     8    29 1   
    18     9    10 1   
    19     9    15 ar  
    20    10    11 2   
    21    10    12 1   
    22    12    13 1   
    23    12    30 1   
    24    13    14 1   
    25    13    31 1   
    26    13    32 1   
    27    14    33 1   
    28    14    34 1   
    29    14    35 1   
    30    15    16 ar  
    31    15    36 1   
    32    16    17 1   
    33    17    18 2   
    34    17    19 1   
    35    19    20 1   
    36    19    37 1   
    37    20    21 1   
    38    20    38 1   
    39    20    39 1   
    40    21    40 1   
    41    21    41 1   
    42    21    42 1   
@<TRIPOS>SUBSTRUCTURE
     1 2KN         1 TEMP              0 ****  ****    0 ROOT
