@<TRIPOS>MOLECULE
2KR
   42    45     1     0     0
SMALL
bcc


@<TRIPOS>ATOM
      1 C01          0.0000     0.0000     0.0000 c3         1 2KR       0.266700
      2 O02          1.4290     0.0000     0.0000 os         1 2KR      -0.379400
      3 C03          2.0430     0.0000     1.2060 cc         1 2KR       0.451100
      4 N04          1.4310    -0.0050     2.3610 nd         1 2KR      -0.607100
      5 C05          2.3490    -0.0100     3.3610 ca         1 2KR      -0.017900
      6 C06          2.2580    -0.0160     4.7550 ca         1 2KR      -0.027000
      7 C07          3.4320    -0.0180     5.4870 ca         1 2KR      -0.231300
      8 C08          4.6480    -0.0140     4.8250 ca         1 2KR       0.391200
      9 N09          4.7120    -0.0080     3.5080 nb         1 2KR      -0.543000
     10 C10          3.6210    -0.0060     2.7620 ca         1 2KR       0.184800
     11 N11          3.3970     0.0010     1.3970 na         1 2KR       0.333900
     12 C12          4.3790    -0.0000     0.3940 ca         1 2KR      -0.204200
     13 C13          4.5000     1.0890    -0.4570 ca         1 2KR      -0.047000
     14 C14          5.4660     1.0890    -1.4440 ca         1 2KR      -0.122000
     15 C15          6.3150    -0.0010    -1.5860 ca         1 2KR       0.030600
     16 N16          7.2950    -0.0010    -2.5850 nu         1 2KR      -0.322300
     17 C17          8.5440    -0.5560    -2.3340 ca         1 2KR       0.488200
     18 C18          9.4700    -0.6650    -3.3660 ca         1 2KR      -0.286300
     19 C19         10.7090    -1.2200    -3.1030 ca         1 2KR      -0.022000
     20 C20         10.9820    -1.6490    -1.8110 ca         1 2KR      -0.264600
     21 C21         12.3200    -2.2590    -1.4780 c3         1 2KR       0.080200
     22 C22         10.0160    -1.5110    -0.8350 ca         1 2KR       0.448200
     23 N23          8.8440    -0.9740    -1.1130 nb         1 2KR      -0.631000
     24 C24          6.1930    -1.0900    -0.7330 ca         1 2KR      -0.122000
     25 C25          5.2300    -1.0880     0.2570 ca         1 2KR      -0.047000
     26 H1          -0.3610     0.9180     0.4470 h1         1 2KR       0.003033
     27 H2          -0.3610    -0.0720    -1.0190 h1         1 2KR       0.003033
     28 H3          -0.3610    -0.8470     0.5710 h1         1 2KR       0.003033
     29 H4           1.2940    -0.0180     5.2500 ha         1 2KR       0.114000
     30 H5           3.4000    -0.0230     6.5700 ha         1 2KR       0.113000
     31 H6           5.5650    -0.0160     5.4000 h4         1 2KR      -0.020900
     32 H7           3.8380     1.9400    -0.3470 ha         1 2KR       0.113500
     33 H8           5.5620     1.9400    -2.1090 ha         1 2KR       0.122000
     34 H9           7.0920     0.3880    -3.4840 hn         1 2KR       0.288800
     35 H10          9.2240    -0.3200    -4.3630 ha         1 2KR       0.116000
     36 H11         11.4500    -1.3180    -3.8870 ha         1 2KR       0.109000
     37 H12         12.8280    -2.5380    -2.3930 hc         1 2KR       0.006367
     38 H13         12.9210    -1.5370    -0.9370 hc         1 2KR       0.006367
     39 H14         12.1730    -3.1390    -0.8640 hc         1 2KR       0.006367
     40 H15         10.2260    -1.8430     0.1750 h4         1 2KR      -0.017900
     41 H16          6.8560    -1.9400    -0.8420 ha         1 2KR       0.122000
     42 H17          5.1350    -1.9380     0.9220 ha         1 2KR       0.113500
@<TRIPOS>BOND
     1     1     2 1   
     2     1    26 1   
     3     1    27 1   
     4     1    28 1   
     5     2     3 1   
     6     3     4 2   
     7     3    11 1   
     8     4     5 1   
     9     5     6 ar  
    10     5    10 ar  
    11     6     7 ar  
    12     6    29 1   
    13     7     8 ar  
    14     7    30 1   
    15     8     9 ar  
    16     8    31 1   
    17     9    10 ar  
    18    10    11 1   
    19    11    12 1   
    20    12    13 ar  
    21    12    25 ar  
    22    13    14 ar  
    23    13    32 1   
    24    14    15 ar  
    25    14    33 1   
    26    15    16 1   
    27    15    24 ar  
    28    16    17 1   
    29    16    34 1   
    30    17    18 ar  
    31    17    23 ar  
    32    18    19 ar  
    33    18    35 1   
    34    19    20 ar  
    35    19    36 1   
    36    20    21 1   
    37    20    22 ar  
    38    21    37 1   
    39    21    38 1   
    40    21    39 1   
    41    22    23 ar  
    42    22    40 1   
    43    24    25 ar  
    44    24    41 1   
    45    25    42 1   
@<TRIPOS>SUBSTRUCTURE
     1 2KR         1 TEMP              0 ****  ****    0 ROOT
