@<TRIPOS>MOLECULE
molecule
   42    45     1     0     0
SMALL
bcc


@<TRIPOS>ATOM
      1 C01          0.0000     0.0000     0.0000 c3         1 2KR       0.148700
      2 O02          1.4290     0.0000     0.0000 os         1 2KR      -0.389400
      3 C03          2.0430     0.0000     1.2060 cc         1 2KR       0.652100
      4 N04          1.4310    -0.0050     2.3610 nd         1 2KR      -0.675100
      5 C05          2.3490    -0.0100     3.3610 ca         1 2KR       0.005100
      6 C06          2.2580    -0.0160     4.7550 ca         1 2KR      -0.054000
      7 C07          3.4320    -0.0180     5.4870 ca         1 2KR      -0.267300
      8 C08          4.6480    -0.0140     4.8250 ca         1 2KR       0.430200
      9 N09          4.7120    -0.0080     3.5080 nb         1 2KR      -0.683000
     10 C10          3.6210    -0.0060     2.7620 ca         1 2KR       0.424800
     11 N11          3.3970     0.0010     1.3970 na         1 2KR      -0.179100
     12 C12          4.3790    -0.0000     0.3940 ca         1 2KR      -0.025200
     13 C13          4.5000     1.0890    -0.4570 ca         1 2KR      -0.090500
     14 C14          5.4660     1.0890    -1.4440 ca         1 2KR      -0.143000
     15 C15          6.3150    -0.0010    -1.5860 ca         1 2KR       0.173600
     16 N16          7.2950    -0.0010    -2.5850 nu         1 2KR      -0.779300
     17 C17          8.5440    -0.5560    -2.3340 ca         1 2KR       0.685200
     18 C18          9.4700    -0.6650    -3.3660 ca         1 2KR      -0.308300
     19 C19         10.7090    -1.2200    -3.1030 ca         1 2KR      -0.054000
     20 C20         10.9820    -1.6490    -1.8110 ca         1 2KR      -0.259600
     21 C21         12.3200    -2.2590    -1.4780 c3         1 2KR      -0.036800
     22 C22         10.0160    -1.5110    -0.8350 ca         1 2KR       0.464200
     23 N23          8.8440    -0.9740    -1.1130 nb         1 2KR      -0.742000
     24 C24          6.1930    -1.0900    -0.7330 ca         1 2KR      -0.143000
     25 C25          5.2300    -1.0880     0.2570 ca         1 2KR      -0.090500
     26 H1          -0.3610     0.9180     0.4470 h1         1 2KR       0.053033
     27 H2          -0.3610    -0.0720    -1.0190 h1         1 2KR       0.053033
     28 H3          -0.3610    -0.8470     0.5710 h1         1 2KR       0.053033
     29 H4           1.2940    -0.0180     5.2500 ha         1 2KR       0.147000
     30 H5           3.4000    -0.0230     6.5700 ha         1 2KR       0.140000
     31 H6           5.5650    -0.0160     5.4000 h4         1 2KR       0.026100
     32 H7           3.8380     1.9400    -0.3470 ha         1 2KR       0.145000
     33 H8           5.5620     1.9400    -2.1090 ha         1 2KR       0.147000
     34 H9           7.0920     0.3880    -3.4840 hn         1 2KR       0.455800
     35 H10          9.2240    -0.3200    -4.3630 ha         1 2KR       0.135000
     36 H11         11.4500    -1.3180    -3.8870 ha         1 2KR       0.138000
     37 H12         12.8280    -2.5380    -2.3930 hc         1 2KR       0.042033
     38 H13         12.9210    -1.5370    -0.9370 hc         1 2KR       0.042033
     39 H14         12.1730    -3.1390    -0.8640 hc         1 2KR       0.042033
     40 H15         10.2260    -1.8430     0.1750 h4         1 2KR       0.026100
     41 H16          6.8560    -1.9400    -0.8420 ha         1 2KR       0.147000
     42 H17          5.1350    -1.9380     0.9220 ha         1 2KR       0.145000
@<TRIPOS>BOND
     1     7     6 ar
     2     7     8 ar
     3     6     5 ar
     4     8     9 ar
     5     5     4 1
     6     5    10 ar
     7     9    10 ar
     8     4     3 2
     9    10    11 1
    10     3    11 1
    11     3     2 1
    12    11    12 1
    13     1     2 1
    14    12    13 ar
    15    12    25 ar
    16    13    14 ar
    17    25    24 ar
    18    14    15 ar
    19    24    15 ar
    20    15    16 1
    21    23    22 ar
    22    23    17 ar
    23    22    20 ar
    24    16    17 1
    25    17    18 ar
    26    20    21 1
    27    20    19 ar
    28    18    19 ar
    29     1    26 1
    30     1    27 1
    31     1    28 1
    32     6    29 1
    33     7    30 1
    34     8    31 1
    35    13    32 1
    36    14    33 1
    37    16    34 1
    38    18    35 1
    39    19    36 1
    40    21    37 1
    41    21    38 1
    42    21    39 1
    43    22    40 1
    44    24    41 1
    45    25    42 1
@<TRIPOS>SUBSTRUCTURE
     1 2KR         1 TEMP              0 ****  ****    0 ROOT
