@<TRIPOS>MOLECULE
molecule
   52    54     1     0     0
SMALL
bcc


@<TRIPOS>ATOM
      1 C1           0.0000     0.0000     0.0000 c3         1 2KS      -0.029700
      2 C2          -0.5030     0.0000    -1.4200 ca         1 2KS      -0.163300
      3 C3           1.5310     0.0000     0.0000 c3         1 2KS      -0.070400
      4 C11         -0.0660     0.0550    -3.7740 ca         1 2KS      -0.110500
      5 C12         -2.3210    -0.0610    -2.9760 ca         1 2KS      -0.110500
      6 C13          1.5310     1.2490     2.1640 c3         1 2KS       0.140100
      7 C14         -1.4240    -0.0010    -4.0270 ca         1 2KS      -0.100000
      8 C17          2.7020     2.4350     5.4750 c2         1 2KS      -0.195200
      9 C18          3.7100     3.1920     5.8880 ce         1 2KS      -0.079200
     10 C19          4.2010     3.0750     7.2770 ca         1 2KS      -0.078800
     11 C20          3.6100     2.1650     8.1550 ca         1 2KS      -0.115000
     12 C21          5.2600     3.8700     7.7150 ca         1 2KS      -0.115000
     13 C22          4.0740     2.0620     9.4500 ca         1 2KS      -0.123000
     14 C23          5.7150     3.7570     9.0120 ca         1 2KS      -0.123000
     15 C24          5.1210     2.8570     9.8800 ca         1 2KS      -0.113000
     16 C4          -0.5100     1.2490     0.7220 c3         1 2KS      -0.070400
     17 C5          -0.5100    -1.2490     0.7220 c3         1 2KS       0.101800
     18 C6           0.3950     0.0560    -2.4710 ca         1 2KS      -0.134000
     19 C7          -1.8600    -0.0610    -1.6730 ca         1 2KS      -0.134000
     20 C8           2.0400     0.0000     1.4420 c3         1 2KS      -0.108900
     21 C9           0.0010     1.2490     2.1640 c3         1 2KS      -0.108900
     22 N10         -0.1120    -2.4460    -0.0310 nz         1 2KS      -0.814600
     23 O15          2.0070     1.2490     3.5110 os         1 2KS      -0.422600
     24 H1           1.8750    -0.9020    -0.4920 hc         1 2KS       0.064450
     25 H2           1.8980     0.8840    -0.5070 hc         1 2KS       0.064450
     26 H3           0.6430     0.0440    -4.5930 ha         1 2KS       0.153500
     27 H4          -3.3820    -0.1000    -3.1930 ha         1 2KS       0.153500
     28 H5           1.9010     2.1180     1.6330 h1         1 2KS       0.051700
     29 H6          -1.7850    -0.0010    -5.0480 ha         1 2KS       0.156000
     30 H7           2.9180     3.0380     3.4060 h1         1 2KS       0.035200
     31 H8           1.2740     3.1120     4.0980 h1         1 2KS       0.035200
     32 H9           2.2680     1.7180     6.1620 ha         1 2KS       0.145000
     33 H10          4.1380     3.9210     5.2100 ha         1 2KS       0.130000
     34 H11          2.8250     1.5680     7.7060 ha         1 2KS       0.132000
     35 H12          5.7470     4.5730     7.0490 ha         1 2KS       0.132000
     36 H13          3.6350     1.3570    10.1460 ha         1 2KS       0.135500
     37 H14          6.5340     4.3970     9.3150 ha         1 2KS       0.135500
     38 H15          5.5160     2.7580    10.8840 ha         1 2KS       0.137000
     39 H16         -1.5930     1.2230     0.7420 hc         1 2KS       0.064450
     40 H17         -0.1810     2.1570     0.2300 hc         1 2KS       0.064450
     41 H18         -0.0500    -1.2700     1.7020 hx         1 2KS       0.112200
     42 H19         -1.5850    -1.2700     0.8530 hx         1 2KS       0.112200
     43 H20          1.4480     0.1060    -2.2230 ha         1 2KS       0.136000
     44 H21         -2.5590    -0.1570    -0.8510 ha         1 2KS       0.136000
     45 H22          1.6470    -0.8530     1.9810 hc         1 2KS       0.061200
     46 H23          3.1230     0.0130     1.4160 hc         1 2KS       0.061200
     47 H24         -0.2110     2.1910     2.6560 hc         1 2KS       0.061200
     48 H25         -0.3910     0.4100     2.7260 hc         1 2KS       0.061200
     49 H26         -0.5540    -2.3840    -0.9270 hn         1 2KS       0.457467
     50 H27          0.8880    -2.4220    -0.0700 hn         1 2KS       0.457467
     51 C16          2.2020     2.5550     4.0590 c3         1 2KS       0.176600
     52 H103        -0.4060    -3.3170     0.3650 hn         1 2KS       0.457467
@<TRIPOS>BOND
     1    11    13 ar
     2    11    10 ar
     3    13    15 ar
     4     9    10 1
     5     9     8 2
     6    10    12 ar
     7    15    14 ar
     8    51     8 1
     9    51    23 1
    10    21    16 1
    11    21     6 1
    12    16     1 1
    13    12    14 ar
    14    18     4 ar
    15    18     2 ar
    16    23     6 1
    17     4     7 ar
    18     6    20 1
    19    17     1 1
    20    17    22 1
    21     1     2 1
    22     1     3 1
    23     2    19 ar
    24     7     5 ar
    25    20     3 1
    26    19     5 ar
    27     3    24 1
    28     3    25 1
    29     4    26 1
    30     5    27 1
    31     6    28 1
    32     7    29 1
    33    51    30 1
    34    51    31 1
    35     8    32 1
    36     9    33 1
    37    11    34 1
    38    12    35 1
    39    13    36 1
    40    14    37 1
    41    15    38 1
    42    16    39 1
    43    16    40 1
    44    17    41 1
    45    17    42 1
    46    18    43 1
    47    19    44 1
    48    20    45 1
    49    20    46 1
    50    21    47 1
    51    21    48 1
    52    22    49 1
    53    22    50 1
    54    52    22 1
@<TRIPOS>SUBSTRUCTURE
     1 2KS         1 TEMP              0 ****  ****    0 ROOT
