@<TRIPOS>MOLECULE
2KS
   52    56     1     0     0
SMALL
bcc


@<TRIPOS>ATOM
      1 C1           0.0000     0.0000     0.0000 c3         1 2KS      -0.013000
      2 C2          -0.5030     0.0000    -1.4200 ca         1 2KS      -0.175000
      3 C3           1.5310     0.0000     0.0000 c3         1 2KS      -0.095000
      4 C11         -0.0660     0.0550    -3.7740 ca         1 2KS      -0.077000
      5 C12         -2.3210    -0.0610    -2.9760 ca         1 2KS      -0.077000
      6 C13          1.5310     1.2490     2.1640 c3         1 2KS       0.072000
      7 C14         -1.4240    -0.0010    -4.0270 ca         1 2KS      -0.064000
      8 C17          2.7020     2.4350     5.4750 c2         1 2KS      -0.120000
      9 C18          3.7100     3.1920     5.8880 c2         1 2KS      -0.061000
     10 C19          4.2010     3.0750     7.2770 c3         1 2KS       0.009000
     11 C20          3.6100     2.1650     8.1550 c2         1 2KS      -0.158000
     12 C21          5.2600     3.8700     7.7150 c2         1 2KS      -0.158000
     13 C22          4.0740     2.0620     9.4500 c2         1 2KS      -0.064000
     14 C23          5.7150     3.7570     9.0120 c2         1 2KS      -0.064000
     15 C24          5.1210     2.8570     9.8800 c2         1 2KS      -0.130000
     16 C4          -0.5100     1.2490     0.7220 c3         1 2KS      -0.095000
     17 C5          -0.5100    -1.2490     0.7220 c3         1 2KS      -0.306000
     18 C6           0.3950     0.0560    -2.4710 ca         1 2KS      -0.111500
     19 C7          -1.8600    -0.0610    -1.6730 ca         1 2KS      -0.111500
     20 C8           2.0400     0.0000     1.4420 c3         1 2KS      -0.135000
     21 C9           0.0010     1.2490     2.1640 c3         1 2KS      -0.135000
     22 N10         -0.1120    -2.4460    -0.0310 nz         1 2KS       0.842000
     23 O15          2.0070     1.2490     3.5110 os         1 2KS      -0.280000
     24 H1           1.8810    -0.9510    -0.3820 hc         1 2KS       0.074750
     25 H2           1.9140     0.8340    -0.5760 hc         1 2KS       0.074750
     26 H3           0.6390     0.0860    -4.5960 ha         1 2KS       0.122500
     27 H4          -3.3870    -0.0720    -3.1720 ha         1 2KS       0.122500
     28 H5           1.8940     2.1240     1.6380 h1         1 2KS       0.064000
     29 H6          -1.7850    -0.0010    -5.0480 ha         1 2KS       0.123000
     30 H7           1.3570     3.2240     3.9450 ha         1 2KS       0.030500
     31 H8           3.0620     2.9380     3.5250 ha         1 2KS       0.030500
     32 H9           3.2050     2.0540     4.5950 DU         1 2KS       0.009000
     33 H10          4.3250     2.3720     6.2370 DU         1 2KS       0.093000
     34 H11          2.7820     1.5560     7.8140 ha         1 2KS       0.116500
     35 H12          5.7400     4.5730     7.0440 ha         1 2KS       0.116500
     36 H13          3.6210     1.3530    10.1330 ha         1 2KS       0.105500
     37 H14          6.5180     4.3960     9.3570 ha         1 2KS       0.105500
     38 H15          5.4780     2.7810    10.9000 ha         1 2KS       0.109000
     39 H16         -0.1930     2.1600     0.2280 hc         1 2KS       0.074750
     40 H17         -1.5900     1.2030     0.7890 hc         1 2KS       0.074750
     41 H18         -0.0980    -1.2530     1.7240 hx         1 2KS       0.138000
     42 H19         -1.5920    -1.2520     0.7540 hx         1 2KS       0.138000
     43 H20          1.4590     0.1140    -2.2760 ha         1 2KS       0.116500
     44 H21         -2.5630    -0.1230    -0.8510 ha         1 2KS       0.116500
     45 H22          1.6500    -0.8780     1.9430 hc         1 2KS       0.070250
     46 H23          3.1240     0.0030     1.4430 hc         1 2KS       0.070250
     47 H24         -0.3410     0.3470     2.6580 hc         1 2KS       0.070250
     48 H25         -0.3690     2.1140     2.7010 hc         1 2KS       0.070250
     49 H26          0.1730    -3.1390     0.6330 hn         1 2KS       0.023000
     50 H27          0.6280    -2.2620    -0.6790 hn         1 2KS       0.023000
     51 C16          2.2020     2.5550     4.0590 DU         1 2KS       0.198000
     52 H103        -0.9230    -2.7730    -0.5180 hn         1 2KS       0.023000
@<TRIPOS>BOND
     1     1     2 1   
     2     1     3 1   
     3     1    16 1   
     4     1    17 1   
     5     2    18 1   
     6     2    19 1   
     7     3    20 1   
     8     3    24 1   
     9     3    25 1   
    10     4     7 1   
    11     4    18 1   
    12     4    26 1   
    13     5     7 1   
    14     5    19 1   
    15     5    27 1   
    16     6    20 1   
    17     6    21 1   
    18     6    23 1   
    19     6    28 1   
    20     7    29 1   
    21     8     9 1   
    22     8    32 1   
    23     8    51 1   
    24     9    10 1   
    25     9    33 1   
    26    10    11 1   
    27    10    12 1   
    28    10    33 1   
    29    11    13 1   
    30    11    34 1   
    31    12    14 1   
    32    12    35 1   
    33    13    15 1   
    34    13    36 1   
    35    14    15 1   
    36    14    37 1   
    37    15    38 1   
    38    16    21 1   
    39    16    39 1   
    40    16    40 1   
    41    17    22 1   
    42    17    41 1   
    43    17    42 1   
    44    18    43 1   
    45    19    44 1   
    46    20    45 1   
    47    20    46 1   
    48    21    47 1   
    49    21    48 1   
    50    22    49 1   
    51    22    50 1   
    52    22    52 1   
    53    23    51 1   
    54    30    51 1   
    55    31    51 1   
    56    32    51 1   
@<TRIPOS>SUBSTRUCTURE
     1 2KS         1 TEMP              0 ****  ****    0 ROOT
