@<TRIPOS>MOLECULE
molecule
   12    11     1     0     0
SMALL
bcc


@<TRIPOS>ATOM
      1 C4           0.0000     0.0000     0.0000 c3         1 2KT      -0.085100
      2 C3           1.5300     0.0000     0.0000 c3         1 2KT      -0.189400
      3 C2           2.0320     0.0000     1.4210 c          1 2KT       0.473100
      4 O3           1.2470     0.0000     2.3390 o          1 2KT      -0.552100
      5 C1           3.4970    -0.0000     1.6940 c          1 2KT       0.804600
      6 O1           3.9460    -0.0000     2.9630 o          1 2KT      -0.817300
      7 O2           4.2850    -0.0000     0.7720 o          1 2KT      -0.817300
      8 H41         -0.3610     0.8850     0.5110 hc         1 2KT       0.023033
      9 H42         -0.3610    -0.8850     0.5110 hc         1 2KT       0.023033
     10 H43         -0.3610     0.0000    -1.0210 hc         1 2KT       0.023033
     11 H31          1.8910     0.8850    -0.5110 hc         1 2KT       0.058700
     12 H32          1.8910    -0.8850    -0.5110 hc         1 2KT       0.058700
@<TRIPOS>BOND
     1     1     2 1
     2     1     8 1
     3     1     9 1
     4     1    10 1
     5     2     3 1
     6     2    11 1
     7     2    12 1
     8     3     4 2
     9     3     5 1
    10     5     6 1
    11     5     7 1
@<TRIPOS>SUBSTRUCTURE
     1 2KT         1 TEMP              0 ****  ****    0 ROOT
