@<TRIPOS>MOLECULE
2KT
   12    11     1     0     0
SMALL
bcc


@<TRIPOS>ATOM
      1 C4          0.0190   -0.0800   -0.0380 c3        1 2KT     -0.078100
      2 C3          1.5070   -0.2010    0.1460 c3        1 2KT     -0.199400
      3 C2          2.0010    0.2730    1.4890 c         1 2KT      0.469100
      4 O3          1.2310    0.7200    2.3480 o         1 2KT     -0.594100
      5 C1          3.5220    0.1400    1.6600 c         1 2KT      0.853600
      6 O1          3.9550   -0.9520    2.1170 o         1 2KT     -0.818300
      7 O2          4.2290    1.1150    1.2890 o         1 2KT     -0.818300
      8 H41        -0.3000    0.9850    0.0720 hc        1 2KT      0.021367
      9 H42        -0.2860   -0.4440   -1.0480 hc        1 2KT      0.021367
     10 H43        -0.5180   -0.6790    0.7370 hc        1 2KT      0.021367
     11 H31         2.0470    0.3970   -0.6360 hc        1 2KT      0.060700
     12 H32         1.8290   -1.2710    0.0330 hc        1 2KT      0.060700
@<TRIPOS>BOND
     1    1    2 1   
     2    1    8 1   
     3    1    9 1   
     4    1   10 1   
     5    2    3 1   
     6    2   11 1   
     7    2   12 1   
     8    3    4 2   
     9    3    5 1   
    10    5    6 1   
    11    5    7 1   
@<TRIPOS>SUBSTRUCTURE
     1 2KT         1 TEMP              0 ****  ****    0 ROOT
