@<TRIPOS>MOLECULE
2KU
   28    29     1     0     0
SMALL
bcc


@<TRIPOS>ATOM
      1 C15          0.0000     0.0000     0.0000 c3         1 2KU       0.256700
      2 C13          2.0100     0.0000     1.3060 c3         1 2KU       0.217400
      3 C12          3.5350    -0.0000     1.1850 c3         1 2KU      -0.049400
      4 C11          4.1560     0.0000     2.5830 c3         1 2KU       0.160800
      5 N1           5.8460     0.0000     4.8150 nb         1 2KU      -0.748000
      6 C2           6.5860    -0.0010     5.9090 ca         1 2KU       0.694900
      7 N3           7.9020    -0.0010     5.8720 nb         1 2KU      -0.685000
      8 C4           8.5470    -0.0010     4.7090 ca         1 2KU       0.250800
      9 C5           7.8040    -0.0000     3.5160 ca         1 2KU      -0.244200
     10 C6           6.4020    -0.0000     3.6080 ca         1 2KU       0.607200
     11 N10          5.6170    -0.0000     2.4680 nu         1 2KU      -0.469900
     12 N7           8.6920     0.0010     2.4930 nc         1 2KU      -0.489100
     13 C8           9.9030     0.0010     2.9700 cd         1 2KU       0.215700
     14 N9           9.8660     0.0010     4.3330 na         1 2KU       0.178000
     15 O12          1.4290     0.0000     0.0000 os         1 2KU      -0.419600
     16 H151        -0.3610    -0.8850     0.5110 h1         1 2KU      -0.012967
     17 H152        -0.3610     0.0000    -1.0210 h1         1 2KU      -0.012967
     18 H153        -0.3610     0.8840     0.5110 h1         1 2KU      -0.012967
     19 H131         1.6900    -0.8850     1.8430 h1         1 2KU      -0.007300
     20 H132         1.6900     0.8850     1.8430 h1         1 2KU      -0.007300
     21 H121         3.8540     0.8850     0.6480 hc         1 2KU       0.026700
     22 H122         3.8540    -0.8850     0.6480 hc         1 2KU       0.026700
     23 H111         3.8370     0.8850     3.1210 h1         1 2KU       0.026700
     24 H112         3.8370    -0.8850     3.1210 h1         1 2KU       0.026700
     25 H10          6.0480    -0.0000     1.5650 hn         1 2KU       0.310800
     26 H9          10.6560     0.0010     4.9460 hn         1 2KU       0.132700
     27 H8          10.8070     0.0010     2.3730 h5         1 2KU       0.030800
     28 H2           6.0910    -0.0010     6.8730 h5         1 2KU      -0.005900
@<TRIPOS>BOND
     1     1    15 1   
     2     1    16 1   
     3     1    17 1   
     4     1    18 1   
     5     2     3 1   
     6     2    15 1   
     7     2    19 1   
     8     2    20 1   
     9     3     4 1   
    10     3    21 1   
    11     3    22 1   
    12     4    11 1   
    13     4    23 1   
    14     4    24 1   
    15     5     6 ar  
    16     5    10 ar  
    17     6     7 ar  
    18     6    28 1   
    19     7     8 ar  
    20     8     9 ar  
    21     8    14 1   
    22     9    10 ar  
    23     9    12 1   
    24    10    11 1   
    25    11    25 1   
    26    12    13 2   
    27    13    14 1   
    28    13    27 1   
    29    14    26 1   
@<TRIPOS>SUBSTRUCTURE
     1 2KU         1 TEMP              0 ****  ****    0 ROOT
