@<TRIPOS>MOLECULE
2KV
   48    54     1     0     0
SMALL
bcc


@<TRIPOS>ATOM
      1 C2           0.0000     0.0000     0.0000 c2         1 2KV       0.021000
      2 C3          -4.5900     0.0600    -0.7290 DU         1 2KV       0.864000
      3 C11         -2.6710     1.0600     0.5200 c3         1 2KV      -0.157000
      4 C12         -8.0420     0.5730    -2.1700 ca         1 2KV      -0.110000
      5 C13         -0.1830    -0.6990     2.3580 c3         1 2KV      -0.623000
      6 C16         -3.9420     0.4710    -2.0530 c3         1 2KV      -0.723000
      7 C17          1.5020     0.0000     0.0000 c3         1 2KV      -0.327000
      8 C18         -6.8810    -0.4730     0.1170 ca         1 2KV      -0.038000
      9 C19         -8.2590    -0.4780    -0.0250 ca         1 2KV      -0.076000
     10 C20         -8.8390     0.0450    -1.1690 ca         1 2KV      -0.070000
     11 C21          1.2870    -1.0960     2.2200 DU         1 2KV       0.358000
     12 C22          2.0220     0.0000     1.4400 DU         1 2KV      -0.237000
     13 N1          -0.7360    -0.3370     1.0590 n          1 2KV       0.813000
     14 C4          -6.0890     0.0550    -0.8840 ca         1 2KV      -0.234000
     15 C5          -2.1940    -0.3410     0.9080 c3         1 2KV      -0.194000
     16 O6          -0.6530    -0.5750    -0.8010 o          1 2KV      -0.473000
     17 C7          -6.6640     0.5780    -2.0280 ca         1 2KV      -0.104000
     18 C8          -4.1130    -1.3410    -0.3400 DU         1 2KV       0.106000
     19 C9          -4.1930     1.0550     0.3630 c3         1 2KV      -0.154000
     20 C10         -2.5900    -1.3360    -0.1840 c3         1 2KV      -0.099000
     21 N15         -3.8360    -0.9670    -2.1690 nz         1 2KV       0.572000
     22 H1          -2.4210     1.7700     1.3000 hc         1 2KV       0.125000
     23 H2          -2.2280     1.3580    -0.4220 hc         1 2KV       0.125000
     24 H3          -0.6400    -0.7080     1.3760 h1         1 2KV       0.053500
     25 H4          -0.6820    -1.4240     2.9880 h1         1 2KV       0.053500
     26 H5          -4.5770     0.7200    -1.2110 DU         1 2KV       0.262000
     27 H6          -4.3710     0.8750    -2.9610 hx         1 2KV       0.164000
     28 H7           1.8500     0.2130    -1.0030 hc         1 2KV       0.190000
     29 H8           1.8500     0.7770     0.6690 DU         1 2KV       0.242000
     30 H9          -6.4370    -0.6280     1.0930 ha         1 2KV       0.126000
     31 H10         -8.8920    -0.6510     0.8370 ha         1 2KV       0.126000
     32 H11         -9.9160     0.0240    -1.2890 ha         1 2KV       0.137000
     33 H12          1.8580    -0.2240     1.9270 ha         1 2KV       0.044500
     34 H13          1.6440    -1.4490     3.1800 ha         1 2KV       0.044500
     35 H14          1.7560    -0.9410     1.9060 DU         1 2KV      -0.125000
     36 H15          3.1010     0.0960     1.4200 ha         1 2KV       0.119000
     37 H16         -2.6570    -0.6310     1.8430 h1         1 2KV       0.129000
     38 H17         -6.0380     0.9020    -2.8500 ha         1 2KV       0.120000
     39 H18         -4.3910    -2.1280    -1.0300 ha         1 2KV      -0.214500
     40 H19         -4.4260    -0.3850    -0.7430 ha         1 2KV      -0.214500
     41 H20         -4.4680     0.3660    -0.4260 hc         1 2KV      -0.035500
     42 H21         -4.5290     2.0530     0.1080 hc         1 2KV      -0.035500
     43 H22         -3.6700    -1.3450    -0.2740 hc         1 2KV       0.066500
     44 H23         -2.2480    -2.3230     0.1010 hc         1 2KV       0.066500
     45 H24         -3.2220    -1.1970    -2.9240 hn         1 2KV       0.027500
     46 H25         -3.4730    -1.3450    -1.3160 DU         1 2KV       0.149000
     47 H153        -4.7420    -1.3550    -2.3450 hn         1 2KV       0.027500
     48 Cl1         -9.1390     1.0310    -3.5020 cl         1 2KV       0.112000
@<TRIPOS>BOND
     1     1     7 1   
     2     1    13 1   
     3     1    16 1   
     4     2     6 1   
     5     2    14 1   
     6     2    18 1   
     7     2    19 1   
     8     2    26 1   
     9     3    15 1   
    10     3    19 1   
    11     3    22 1   
    12     3    23 1   
    13     4    10 1   
    14     4    17 1   
    15     4    48 1   
    16     5    11 1   
    17     5    13 1   
    18     5    24 1   
    19     5    25 1   
    20     6    21 1   
    21     6    26 1   
    22     6    27 1   
    23     7    12 1   
    24     7    28 1   
    25     7    29 1   
    26     8     9 1   
    27     8    14 1   
    28     8    30 1   
    29     9    10 1   
    30     9    31 1   
    31    10    32 1   
    32    11    12 1   
    33    11    33 1   
    34    11    34 1   
    35    11    35 1   
    36    12    29 1   
    37    12    35 1   
    38    12    36 1   
    39    13    15 1   
    40    14    17 1   
    41    15    20 1   
    42    15    37 1   
    43    17    38 1   
    44    18    20 1   
    45    18    39 1   
    46    18    40 1   
    47    18    46 1   
    48    19    41 1   
    49    19    42 1   
    50    20    43 1   
    51    20    44 1   
    52    21    45 1   
    53    21    46 1   
    54    21    47 1   
@<TRIPOS>SUBSTRUCTURE
     1 2KV         1 TEMP              0 ****  ****    0 ROOT
