@<TRIPOS>MOLECULE
molecule
   48    50     1     0     0
SMALL
bcc


@<TRIPOS>ATOM
      1 C2           0.0000     0.0000     0.0000 c          1 2KV       0.639500
      2 C3          -4.5900     0.0600    -0.7290 c3         1 2KV       0.532300
      3 C11         -2.6710     1.0600     0.5200 c3         1 2KV      -0.078900
      4 C12         -8.0420     0.5730    -2.1700 ca         1 2KV       0.044400
      5 C13         -0.1830    -0.6990     2.3580 c3         1 2KV      -0.358000
      6 C16         -3.9420     0.4710    -2.0530 c3         1 2KV      -0.319200
      7 C17          1.5020     0.0000     0.0000 c3         1 2KV      -0.354400
      8 C18         -6.8810    -0.4730     0.1170 ca         1 2KV      -0.058000
      9 C19         -8.2590    -0.4780    -0.0250 ca         1 2KV      -0.113000
     10 C20         -8.8390     0.0450    -1.1690 ca         1 2KV      -0.082000
     11 C21          1.2870    -1.0960     2.2200 c3         1 2KV       0.149600
     12 C22          2.0220     0.0000     1.4400 c3         1 2KV      -0.414400
     13 N1          -0.7360    -0.3370     1.0590 n          1 2KV      -0.246800
     14 C4          -6.0890     0.0550    -0.8840 ca         1 2KV      -0.225300
     15 C5          -2.1940    -0.3410     0.9080 c3         1 2KV       0.055700
     16 O6          -0.6530    -0.5750    -0.8010 o          1 2KV      -0.659500
     17 C7          -6.6640     0.5780    -2.0280 ca         1 2KV      -0.124000
     18 C8          -4.1130    -1.3410    -0.3400 c3         1 2KV      -0.263900
     19 C9          -4.1930     1.0550     0.3630 c3         1 2KV      -0.263900
     20 C10         -2.5900    -1.3360    -0.1840 c3         1 2KV      -0.078900
     21 N15         -3.8360    -0.9670    -2.1690 nz         1 2KV      -0.900600
     22 H1          -2.4210     1.7700     1.3000 hc         1 2KV       0.131700
     23 H2          -2.2280     1.3580    -0.4220 hc         1 2KV       0.131700
     24 H3          -0.6400    -0.7080     1.3760 h1         1 2KV       0.185200
     25 H4          -0.6820    -1.4240     2.9880 h1         1 2KV       0.185200
     26 H5          -4.5770     0.7200    -1.2110 hx         1 2KV       0.168200
     27 H6          -4.3710     0.8750    -2.9610 hx         1 2KV       0.168200
     28 H7           1.8500     0.2130    -1.0030 hc         1 2KV       0.218700
     29 H8           1.8500     0.7770     0.6690 hc         1 2KV       0.218700
     30 H9          -6.4370    -0.6280     1.0930 ha         1 2KV       0.166000
     31 H10         -8.8920    -0.6510     0.8370 ha         1 2KV       0.166000
     32 H11         -9.9160     0.0240    -1.2890 ha         1 2KV       0.176000
     33 H12          1.8580    -0.2240     1.9270 hc         1 2KV       0.108700
     34 H13          1.6440    -1.4490     3.1800 hc         1 2KV       0.108700
     35 H14          1.7560    -0.9410     1.9060 hc         1 2KV       0.066200
     36 H15          3.1010     0.0960     1.4200 hc         1 2KV       0.066200
     37 H16         -2.6570    -0.6310     1.8430 h1         1 2KV       0.122700
     38 H17         -6.0380     0.9020    -2.8500 ha         1 2KV       0.147000
     39 H18         -4.3910    -2.1280    -1.0300 hc         1 2KV       0.010950
     40 H19         -4.4260    -0.3850    -0.7430 hc         1 2KV       0.010950
     41 H20         -4.4680     0.3660    -0.4260 hc         1 2KV       0.010950
     42 H21         -4.5290     2.0530     0.1080 hc         1 2KV       0.010950
     43 H22         -3.6700    -1.3450    -0.2740 hc         1 2KV       0.131700
     44 H23         -2.2480    -2.3230     0.1010 hc         1 2KV       0.131700
     45 H24         -3.2220    -1.1970    -2.9240 hn         1 2KV       0.447800
     46 H25         -3.4730    -1.3450    -1.3160 hn         1 2KV       0.447800
     47 H153        -4.7420    -1.3550    -2.3450 hn         1 2KV       0.447800
     48 Cl1         -9.1390     1.0310    -3.5020 cl         1 2KV      -0.067400
@<TRIPOS>BOND
     1    12     7 1   
     2    12    11 1   
     3     7     1 1   
     4    20    18 1   
     5    20    15 1   
     6    16     1 2   
     7     1    13 1   
     8    11     5 1   
     9    18     2 1   
    10    48     4 1   
    11    13     5 1   
    12    13    15 1   
    13    15     3 1   
    14    17     4 ar  
    15    17    14 ar  
    16     4    10 ar  
    17     6     2 1   
    18     6    21 1   
    19     2    14 1   
    20     2    19 1   
    21    14     8 ar  
    22     3    19 1   
    23    10     9 ar  
    24     8     9 ar  
    25     3    22 1   
    26     3    23 1   
    27     5    24 1   
    28     5    25 1   
    29     6    26 1   
    30     6    27 1   
    31     7    28 1   
    32     7    29 1   
    33     8    30 1   
    34     9    31 1   
    35    10    32 1   
    36    11    33 1   
    37    11    34 1   
    38    12    35 1   
    39    12    36 1   
    40    15    37 1   
    41    17    38 1   
    42    18    39 1   
    43    18    40 1   
    44    19    41 1   
    45    19    42 1   
    46    20    43 1   
    47    20    44 1   
    48    21    45 1   
    49    21    46 1   
    50    47    21 1   
@<TRIPOS>SUBSTRUCTURE
     1 2KV         1 TEMP              0 ****  ****    0 ROOT
