@<TRIPOS>MOLECULE
molecule
   40    42     1     0     0
SMALL
bcc


@<TRIPOS>ATOM
      1 C8           0.0000     0.0000     0.0000 cc         1 2KW      -0.077200
      2 C7           1.3670     0.0000     0.0000 cd         1 2KW       0.017900
      3 C9          -0.6860     0.0040     1.2230 cd         1 2KW      -0.217000
      4 C10          0.0060     0.0040     2.3860 cc         1 2KW       0.004600
      5 C5           4.2690    -3.3660    -2.1080 ca         1 2KW      -0.120000
      6 C4           4.3420    -2.2370    -2.9260 ca         1 2KW       0.051000
      7 C3           3.5930    -1.1030    -2.6110 ca         1 2KW      -0.110000
      8 C2           2.7810    -1.1040    -1.4870 ca         1 2KW       0.116100
      9 C1           2.7140    -2.2310    -0.6790 ca         1 2KW      -0.168000
     10 C13         -0.7620     0.0010    -1.3010 c3         1 2KW       0.671100
     11 C12          2.0550     0.0000     1.2310 c          1 2KW       0.668700
     12 C18          2.3320    -1.4210     4.1020 cc         1 2KW       0.307900
     13 C21          3.0000    -3.1480     5.3010 c          1 2KW       0.754500
     14 C            3.4530    -3.3580    -0.9940 ca         1 2KW       0.057400
     15 F           -0.9970    -1.3190    -1.7050 f          1 2KW      -0.211300
     16 N            5.8660    -2.2440    -4.9930 n1         1 2KW      -0.348800
     17 O            2.0550     0.0000    -1.1730 os         1 2KW      -0.203200
     18 Cl           3.3620    -4.7630     0.0220 cl         1 2KW      -0.096400
     19 N11          1.3650    -0.0000     2.3870 n          1 2KW      -0.280000
     20 F14         -1.9850     0.6580    -1.1240 f          1 2KW      -0.211300
     21 F15         -0.0130     0.6620    -2.2800 f          1 2KW      -0.211300
     22 O16          3.2760    -0.0000     1.2480 o          1 2KW      -0.614500
     23 N19          1.9670    -2.4810     3.4570 n2         1 2KW      -0.489300
     24 N20          2.3770    -3.6020     4.1930 ns         1 2KW      -0.306900
     25 N22          2.9810    -1.8010     5.2510 n          1 2KW      -0.411300
     26 O23          3.4940    -3.8300     6.1810 o          1 2KW      -0.646500
     27 H1          -1.7490    -0.0440     1.4230 ha         1 2KW       0.172000
     28 H2          -0.7160     0.1240     3.1850 h4         1 2KW       0.180000
     29 H3           4.5530    -4.4070    -2.2020 ha         1 2KW       0.166000
     30 H4           3.6480    -0.1120    -3.0460 ha         1 2KW       0.166000
     31 H5           2.2020    -1.8940     0.2140 ha         1 2KW       0.156000
     32 H6           2.6770    -0.4120     6.6650 h1         1 2KW       0.078367
     33 H7           3.6960    -1.7160     6.9470 h1         1 2KW       0.078367
     34 H8           4.5580    -0.5810     6.0020 h1         1 2KW       0.078367
     35 H9           3.0020     0.4910     3.9750 h1         1 2KW       0.094200
     36 H10          1.2620     0.2060     4.3310 h1         1 2KW       0.094200
     37 H11          2.5370    -4.5280     3.8480 hn         1 2KW       0.389500
     38 C17          2.0880     0.0000     3.6620 c3         1 2KW       0.108700
     39 C6           5.1830    -2.2420    -4.0850 cg         1 2KW       0.241800
     40 C24          3.5530    -0.8970     6.2520 c3         1 2KW       0.071300
@<TRIPOS>BOND
     1    24    23 1
     2    24    13 1
     3    23    12 2
     4     4     3 2
     5     4    19 1
     6     3     1 1
     7    13    26 2
     8    13    25 1
     9    21    10 1
    10    12    38 1
    11    12    25 1
    12    38    19 1
    13    25    40 1
    14    19    11 1
    15     1    10 1
    16     1     2 2
    17    10    15 1
    18    10    20 1
    19    11     2 1
    20    11    22 2
    21     2    17 1
    22    17     8 1
    23     8     9 ar
    24     8     7 ar
    25     9    14 ar
    26     7     6 ar
    27    14    18 1
    28    14     5 ar
    29     6     5 ar
    30     6    39 1
    31    39    16 3
    32     3    27 1
    33     4    28 1
    34     5    29 1
    35     7    30 1
    36     9    31 1
    37    40    32 1
    38    40    33 1
    39    40    34 1
    40    38    35 1
    41    38    36 1
    42    24    37 1
@<TRIPOS>SUBSTRUCTURE
     1 2KW         1 TEMP              0 ****  ****    0 ROOT
