@<TRIPOS>MOLECULE
2KW
   40    42     1     0     0
SMALL
bcc


@<TRIPOS>ATOM
      1 C8           0.0000     0.0000     0.0000 cc         1 2KW      -0.117200
      2 C7           1.3670     0.0000     0.0000 cd         1 2KW       0.038900
      3 C9          -0.6860     0.0040     1.2230 cc         1 2KW      -0.171000
      4 C10          0.0060     0.0040     2.3860 cd         1 2KW      -0.152400
      5 C5           4.2690    -3.3660    -2.1080 ca         1 2KW      -0.116000
      6 C4           4.3420    -2.2370    -2.9260 ca         1 2KW       0.112000
      7 C3           3.5930    -1.1030    -2.6110 ca         1 2KW      -0.105000
      8 C2           2.7810    -1.1040    -1.4870 ca         1 2KW       0.127100
      9 C1           2.7140    -2.2310    -0.6790 ca         1 2KW      -0.177000
     10 C13         -0.7620     0.0010    -1.3010 c3         1 2KW       0.642100
     11 C12          2.0550     0.0000     1.2310 c          1 2KW       0.559700
     12 C18          2.3320    -1.4210     4.1020 cc         1 2KW       0.190900
     13 C21          3.0000    -3.1480     5.3010 c          1 2KW       0.548500
     14 C            3.4530    -3.3580    -0.9940 ca         1 2KW       0.005400
     15 F           -0.9970    -1.3190    -1.7050 f          1 2KW      -0.201633
     16 N            5.8660    -2.2440    -4.9930 n1         1 2KW      -0.371800
     17 O            2.0550     0.0000    -1.1730 os         1 2KW      -0.179200
     18 Cl           3.3620    -4.7630     0.0220 cl         1 2KW      -0.018400
     19 N11          1.3650    -0.0000     2.3870 n          1 2KW       0.193000
     20 F14         -1.9850     0.6580    -1.1240 f          1 2KW      -0.201633
     21 F15         -0.0130     0.6620    -2.2800 f          1 2KW      -0.201633
     22 O16          3.2760    -0.0000     1.2480 o          1 2KW      -0.670500
     23 N19          1.9670    -2.4810     3.4570 n2         1 2KW      -0.608300
     24 N20          2.3770    -3.6020     4.1930 ns         1 2KW       0.098100
     25 N22          2.9810    -1.8010     5.2510 n          1 2KW      -0.020300
     26 O23          3.4940    -3.8300     6.1810 o          1 2KW      -0.690500
     27 H1          -1.7490    -0.0440     1.4230 ha         1 2KW       0.143000
     28 H2          -0.7160     0.1240     3.1850 h4         1 2KW       0.151000
     29 H3           4.5530    -4.4070    -2.2020 ha         1 2KW       0.135000
     30 H4           3.6480    -0.1120    -3.0460 ha         1 2KW       0.134000
     31 H5           2.2020    -1.8940     0.2140 ha         1 2KW       0.142000
     32 H6           2.6770    -0.4120     6.6650 h1         1 2KW       0.044700
     33 H7           3.6960    -1.7160     6.9470 h1         1 2KW       0.044700
     34 H8           4.5580    -0.5810     6.0020 h1         1 2KW       0.044700
     35 H9           3.0020     0.4910     3.9750 h1         1 2KW       0.056200
     36 H10          1.2620     0.2060     4.3310 h1         1 2KW       0.056200
     37 H11          2.5370    -4.5280     3.8480 hn         1 2KW       0.224500
     38 C17          2.0880     0.0000     3.6620 c3         1 2KW       0.032700
     39 C6           5.1830    -2.2420    -4.0850 cg         1 2KW       0.228800
     40 C24          3.5530    -0.8970     6.2520 c3         1 2KW       0.048300
@<TRIPOS>BOND
     1     1     2 2   
     2     1     3 1   
     3     1    10 1   
     4     2    11 1   
     5     2    17 1   
     6     3     4 2   
     7     3    27 1   
     8     4    19 1   
     9     4    28 1   
    10     5     6 ar  
    11     5    14 ar  
    12     5    29 1   
    13     6     7 ar  
    14     6    39 1   
    15     7     8 ar  
    16     7    30 1   
    17     8     9 ar  
    18     8    17 1   
    19     9    14 ar  
    20     9    31 1   
    21    10    15 1   
    22    10    20 1   
    23    10    21 1   
    24    11    19 1   
    25    11    22 2   
    26    12    23 2   
    27    12    25 1   
    28    12    38 1   
    29    13    24 1   
    30    13    25 1   
    31    13    26 2   
    32    14    18 1   
    33    16    39 3   
    34    19    38 1   
    35    23    24 1   
    36    24    37 1   
    37    25    40 1   
    38    32    40 1   
    39    33    40 1   
    40    34    40 1   
    41    35    38 1   
    42    36    38 1   
@<TRIPOS>SUBSTRUCTURE
     1 2KW         1 TEMP              0 ****  ****    0 ROOT
