@<TRIPOS>MOLECULE
molecule
   49    51     1     0     0
SMALL
bcc


@<TRIPOS>ATOM
      1 O1           0.0000     0.0000     0.0000 oh         1 2KX      -0.500100
      2 O9           3.0160     4.5770    -8.3560 os         1 2KX      -0.467900
      3 C10          1.7790     4.6890    -7.6030 c3         1 2KX       0.166100
      4 C11          1.1090     6.0530    -7.8670 c3         1 2KX      -0.101400
      5 C12          0.5010     6.5110    -6.5290 c3         1 2KX      -0.086400
      6 C13          0.8230     5.4080    -5.4990 c3         1 2KX      -0.084400
      7 C14          2.0690     4.6970    -6.0810 c3         1 2KX      -0.072700
      8 C15          2.3570     2.9330    -5.5620 c3         1 2KX      -0.063400
      9 C16          2.3660     2.9200    -4.0320 c3         1 2KX      -0.084400
     10 C17          2.3690     1.4730    -3.5340 c3         1 2KX      -0.082400
     11 C18          2.3780     1.4600    -2.0040 c3         1 2KX      -0.075400
     12 C19          2.3810     0.0130    -1.5070 c3         1 2KX      -0.127700
     13 C20          2.3880     0.0000     0.0000 ca         1 2KX       0.437600
     14 N21          3.5370     0.0000     0.6330 nb         1 2KX      -0.661000
     15 C22          3.5960    -0.0110     1.9680 ca         1 2KX       0.404600
     16 C23          4.8320    -0.0100     2.6380 ca         1 2KX      -0.154300
     17 C24          4.8620    -0.0220     3.9980 ca         1 2KX      -0.131000
     18 C25          3.6860    -0.0340     4.7450 ca         1 2KX      -0.127000
     19 C26          2.4700    -0.0350     4.1310 ca         1 2KX      -0.117000
     20 C27          2.4000    -0.0240     2.7290 ca         1 2KX      -0.135300
     21 C28          1.1640    -0.0240     2.0580 ca         1 2KX      -0.169000
     22 C29          1.1710    -0.0050     0.6890 ca         1 2KX       0.011800
     23 O38          1.8640     3.6510   -10.0100 o          1 2KX      -0.585000
     24 H10          1.1010     3.8810    -7.8530 h1         1 2KX       0.067700
     25 H111         1.8490     6.7700    -8.2000 hc         1 2KX       0.052700
     26 H112         0.3280     5.9440    -8.6090 hc         1 2KX       0.052700
     27 H122         0.9490     7.4470    -6.2200 hc         1 2KX       0.026700
     28 H121        -0.5720     6.6210    -6.6290 hc         1 2KX       0.026700
     29 H132         1.0540     5.8470    -4.5360 hc         1 2KX       0.030700
     30 H131        -0.0050     4.7130    -5.4180 hc         1 2KX       0.030700
     31 H14          2.9070     5.3460    -5.8570 hc         1 2KX       0.057700
     32 H151         1.4750     2.3430    -5.7800 hc         1 2KX       0.051200
     33 H152         3.2040     2.5300    -6.1040 hc         1 2KX       0.051200
     34 H162         1.4130     3.2790    -3.6620 hc         1 2KX       0.037700
     35 H161         3.1590     3.5630    -3.6700 hc         1 2KX       0.037700
     36 H171         3.2520     0.9650    -3.9050 hc         1 2KX       0.041700
     37 H172         1.4830     0.9650    -3.8950 hc         1 2KX       0.041700
     38 H182         3.2640     1.9680    -1.6440 hc         1 2KX       0.047700
     39 H181         1.4950     1.9680    -1.6340 hc         1 2KX       0.047700
     40 H191         1.4950    -0.4950    -1.8680 hc         1 2KX       0.062200
     41 H192         3.2640    -0.4940    -1.8770 hc         1 2KX       0.062200
     42 H23          5.7570    -0.0010     2.0740 ha         1 2KX       0.150000
     43 H24          5.8170    -0.0210     4.5100 ha         1 2KX       0.129000
     44 H25          3.7390    -0.0430     5.8270 ha         1 2KX       0.126000
     45 H26          1.5620    -0.0450     4.7220 ha         1 2KX       0.129000
     46 H28          0.2550     0.2120     2.5980 ha         1 2KX       0.144000
     47 H2          -0.5690    -0.6700     0.3420 ho         1 2KX       0.420000
     48 OXT          4.0450     3.8920   -10.3310 o          1 2KX      -0.585000
     49 C8           2.9370     4.0270    -9.5810 c          1 2KX       0.468100
@<TRIPOS>BOND
     1    17    16 ar
     2    17    18 ar
     3    16    15 ar
     4    18    19 ar
     5    15    14 ar
     6    15    20 ar
     7    10    11 1
     8    10     9 1
     9    14    13 ar
    10    11    12 1
    11     8     9 1
    12     8     7 1
    13    19    20 ar
    14     6     5 1
    15     6     7 1
    16    20    21 ar
    17    12    13 1
    18    13    22 ar
    19     5     4 1
    20     7     3 1
    21    21    22 ar
    22    22     1 1
    23     3     4 1
    24     3     2 1
    25    23    49 1
    26     2    49 1
    27     3    24 1
    28     4    25 1
    29     4    26 1
    30     5    27 1
    31     5    28 1
    32     6    29 1
    33     6    30 1
    34     7    31 1
    35     8    32 1
    36     8    33 1
    37     9    34 1
    38     9    35 1
    39    10    36 1
    40    10    37 1
    41    11    38 1
    42    11    39 1
    43    12    40 1
    44    12    41 1
    45    16    42 1
    46    17    43 1
    47    18    44 1
    48    19    45 1
    49    21    46 1
    50     1    47 1
    51    49    48 1
@<TRIPOS>SUBSTRUCTURE
     1 2KX         1 TEMP              0 ****  ****    0 ROOT
