@<TRIPOS>MOLECULE
2L1
   34    36     1     0     0
SMALL
bcc


@<TRIPOS>ATOM
      1 CAH          0.0000     0.0000     0.0000 c3         1 2L1       0.147800
      2 CAG          1.5290     0.0000     0.0000 c3         1 2L1       0.034900
      3 CAN          2.0440     0.0000     1.4170 ca         1 2L1      -0.070300
      4 CAD          3.3650     0.3560     1.6400 ca         1 2L1      -0.102000
      5 CAB          3.8780     0.3640     2.9220 ca         1 2L1      -0.100000
      6 CAC          3.0700     0.0160     3.9880 ca         1 2L1      -0.103000
      7 CAE          1.7540    -0.3350     3.7670 ca         1 2L1      -0.098000
      8 CAO          1.2360    -0.3420     2.4800 ca         1 2L1      -0.082300
      9 CAI         -0.2090    -0.7230     2.2900 c3         1 2L1       0.212100
     10 NAQ         -0.4670    -1.0740     0.8900 n3         1 2L1      -0.531600
     11 CAJ         -1.8920    -1.3550     0.6720 c3         1 2L1       0.268100
     12 CAP         -2.2440    -2.6820     1.2960 cc         1 2L1      -0.446900
     13 NAL         -2.9300    -2.8780     2.4650 na         1 2L1       0.248100
     14 CAF         -3.0250    -4.2120     2.6530 cc         1 2L1       0.207400
     15 NAK         -2.4340    -4.8180     1.6600 nd         1 2L1      -0.615000
     16 CAM         -1.9480    -3.9020     0.8080 cd         1 2L1       0.326600
     17 CAA         -1.2010    -4.1870    -0.4690 c3         1 2L1       0.001600
     18 H1          -0.3520    -0.1980    -1.0050 h1         1 2L1       0.012700
     19 H2          -0.3520     0.9510     0.3810 h1         1 2L1       0.012700
     20 H3           1.8770     0.8990    -0.4960 hc         1 2L1       0.028200
     21 H4           1.8770    -0.8990    -0.4960 hc         1 2L1       0.028200
     22 H5           3.9990     0.6280     0.8040 ha         1 2L1       0.105000
     23 H6           4.9120     0.6400     3.0910 ha         1 2L1       0.102000
     24 H7           3.4690     0.0210     4.9950 ha         1 2L1       0.102000
     25 H8           1.1210    -0.6070     4.6030 ha         1 2L1       0.101000
     26 H9          -0.4380    -1.5750     2.9190 h1         1 2L1       0.012700
     27 H10         -0.8380     0.1130     2.5690 h1         1 2L1       0.012700
     28 H12         -2.0950    -1.3910    -0.3910 h1         1 2L1       0.009200
     29 H13         -2.4880    -0.5730     1.1270 h1         1 2L1       0.009200
     30 H14         -3.2930    -2.1650     3.0670 hn         1 2L1       0.117700
     31 H15         -3.5110    -4.6980     3.4900 h5         1 2L1       0.021100
     32 H17         -0.1560    -3.9320    -0.3410 hc         1 2L1       0.008700
     33 H18         -1.6210    -3.5960    -1.2730 hc         1 2L1       0.008700
     34 H19         -1.2890    -5.2400    -0.7110 hc         1 2L1       0.008700
@<TRIPOS>BOND
     1     1     2 1   
     2     1    10 1   
     3     1    18 1   
     4     1    19 1   
     5     2     3 1   
     6     2    20 1   
     7     2    21 1   
     8     3     4 ar  
     9     3     8 ar  
    10     4     5 ar  
    11     4    22 1   
    12     5     6 ar  
    13     5    23 1   
    14     6     7 ar  
    15     6    24 1   
    16     7     8 ar  
    17     7    25 1   
    18     8     9 1   
    19     9    10 1   
    20     9    26 1   
    21     9    27 1   
    22    10    11 1   
    23    11    12 1   
    24    11    28 1   
    25    11    29 1   
    26    12    13 1   
    27    12    16 2   
    28    13    14 1   
    29    13    30 1   
    30    14    15 2   
    31    14    31 1   
    32    15    16 1   
    33    16    17 1   
    34    17    32 1   
    35    17    33 1   
    36    17    34 1   
@<TRIPOS>SUBSTRUCTURE
     1 2L1         1 TEMP              0 ****  ****    0 ROOT
