@<TRIPOS>MOLECULE
molecule
   34    36     1     0     0
SMALL
bcc


@<TRIPOS>ATOM
      1 CAH          0.0000     0.0000     0.0000 c3         1 2L1       0.157800
      2 CAG          1.5290     0.0000     0.0000 c3         1 2L1      -0.031100
      3 CAN          2.0440     0.0000     1.4170 ca         1 2L1      -0.065300
      4 CAD          3.3650     0.3560     1.6400 ca         1 2L1      -0.128000
      5 CAB          3.8780     0.3640     2.9220 ca         1 2L1      -0.126000
      6 CAC          3.0700     0.0160     3.9880 ca         1 2L1      -0.129000
      7 CAE          1.7540    -0.3350     3.7670 ca         1 2L1      -0.125000
      8 CAO          1.2360    -0.3420     2.4800 ca         1 2L1      -0.074300
      9 CAI         -0.2090    -0.7230     2.2900 c3         1 2L1       0.209100
     10 NAQ         -0.4670    -1.0740     0.8900 n3         1 2L1      -0.717600
     11 CAJ         -1.8920    -1.3550     0.6720 c3         1 2L1       0.247100
     12 CAP         -2.2440    -2.6820     1.2960 cc         1 2L1      -0.241900
     13 NAL         -2.9300    -2.8780     2.4650 na         1 2L1      -0.300900
     14 CAF         -3.0250    -4.2120     2.6530 cc         1 2L1       0.397400
     15 NAK         -2.4340    -4.8180     1.6600 nd         1 2L1      -0.698000
     16 CAM         -1.9480    -3.9020     0.8080 cd         1 2L1       0.350600
     17 CAA         -1.2010    -4.1870    -0.4690 c3         1 2L1      -0.103400
     18 H1          -0.3520    -0.1980    -1.0050 h1         1 2L1       0.039200
     19 H2          -0.3520     0.9510     0.3810 h1         1 2L1       0.039200
     20 H3           1.8770     0.8990    -0.4960 hc         1 2L1       0.059700
     21 H4           1.8770    -0.8990    -0.4960 hc         1 2L1       0.059700
     22 H5           3.9990     0.6280     0.8040 ha         1 2L1       0.129000
     23 H6           4.9120     0.6400     3.0910 ha         1 2L1       0.129000
     24 H7           3.4690     0.0210     4.9950 ha         1 2L1       0.129000
     25 H8           1.1210    -0.6070     4.6030 ha         1 2L1       0.127000
     26 H9          -0.4380    -1.5750     2.9190 h1         1 2L1       0.043700
     27 H10         -0.8380     0.1130     2.5690 h1         1 2L1       0.043700
     28 H12         -2.0950    -1.3910    -0.3910 h1         1 2L1       0.041200
     29 H13         -2.4880    -0.5730     1.1270 h1         1 2L1       0.041200
     30 H14         -3.2930    -2.1650     3.0670 hn         1 2L1       0.293700
     31 H15         -3.5110    -4.6980     3.4900 h5         1 2L1       0.063100
     32 H17         -0.1560    -3.9320    -0.3410 hc         1 2L1       0.046367
     33 H18         -1.6210    -3.5960    -1.2730 hc         1 2L1       0.046367
     34 H19         -1.2890    -5.2400    -0.7110 hc         1 2L1       0.046367
@<TRIPOS>BOND
     1     5     6 ar
     2     5     4 ar
     3     6     7 ar
     4     4     3 ar
     5     7     8 ar
     6     3     8 ar
     7     3     2 1
     8     8     9 1
     9     2     1 1
    10     9    10 1
    11     1    10 1
    12    10    11 1
    13    11    12 1
    14    17    16 1
    15    12    16 2
    16    12    13 1
    17    16    15 1
    18    13    14 1
    19    15    14 2
    20     1    18 1
    21     1    19 1
    22     2    20 1
    23     2    21 1
    24     4    22 1
    25     5    23 1
    26     6    24 1
    27     7    25 1
    28     9    26 1
    29     9    27 1
    30    11    28 1
    31    11    29 1
    32    13    30 1
    33    14    31 1
    34    17    32 1
    35    17    33 1
    36    17    34 1
@<TRIPOS>SUBSTRUCTURE
     1 2L1         1 TEMP              0 ****  ****    0 ROOT
