@<TRIPOS>MOLECULE
molecule
   36    38     1     0     0
SMALL
bcc


@<TRIPOS>ATOM
      1 CAH          0.0000     0.0000     0.0000 c3         1 2L2       0.155800
      2 CAG          1.5290     0.0000     0.0000 c3         1 2L2      -0.031100
      3 CAO          2.0430     0.0000     1.4170 ca         1 2L2      -0.026300
      4 CAE          3.3650     0.3570     1.6400 ca         1 2L2      -0.178000
      5 CAC          3.8810     0.3670     2.9200 ca         1 2L2      -0.087000
      6 CAD          3.0800     0.0200     3.9890 ca         1 2L2      -0.201000
      7 CAM          1.7570    -0.3360     3.7720 ca         1 2L2       0.201600
      8 NAB          0.9430    -0.6880     4.8510 nv         1 2L2      -0.935200
      9 CAQ          1.2370    -0.3440     2.4790 ca         1 2L2      -0.144300
     10 CAJ         -0.2080    -0.7260     2.2900 c3         1 2L2       0.217100
     11 NAR         -0.4670    -1.0760     0.8900 n3         1 2L2      -0.715600
     12 CAI         -1.8930    -1.3580     0.6720 c3         1 2L2       0.247100
     13 CAP         -2.0880    -1.9250    -0.7100 cc         1 2L2      -0.240900
     14 NAL         -2.5120    -1.2450    -1.8190 na         1 2L2      -0.299900
     15 CAF         -2.5470    -2.1260    -2.8410 cc         1 2L2       0.396400
     16 NAK         -2.1650    -3.2930    -2.3990 nd         1 2L2      -0.698000
     17 CAN         -1.8710    -3.1980    -1.0940 cd         1 2L2       0.349600
     18 CAA         -1.3870    -4.3190    -0.2110 c3         1 2L2      -0.105400
     19 H1          -0.3520    -0.1960    -1.0050 h1         1 2L2       0.037700
     20 H2          -0.3520     0.9500     0.3820 h1         1 2L2       0.037700
     21 H3           1.8760    -0.8990    -0.4950 hc         1 2L2       0.061700
     22 H4           1.8770     0.8980    -0.4960 hc         1 2L2       0.061700
     23 H5           3.9970     0.6300     0.8030 ha         1 2L2       0.128000
     24 H6           4.9150     0.6460     3.0860 ha         1 2L2       0.128000
     25 H7           3.4820     0.0270     4.9950 ha         1 2L2       0.129000
     26 H8           1.3510    -1.0740     5.6800 hn         1 2L2       0.428300
     27 H9          -0.0440    -0.5300     4.8060 hn         1 2L2       0.428300
     28 H10         -0.4360    -1.5780     2.9180 h1         1 2L2       0.037200
     29 H11         -0.8370     0.1100     2.5700 h1         1 2L2       0.037200
     30 H13         -2.4610    -0.4400     0.7690 h1         1 2L2       0.041200
     31 H14         -2.2360    -2.0740     1.4080 h1         1 2L2       0.041200
     32 H15         -2.7530    -0.2740    -1.8640 hn         1 2L2       0.293700
     33 H16         -2.8430    -1.9020    -3.8580 h5         1 2L2       0.063100
     34 H18         -1.4140    -5.2510    -0.7620 hc         1 2L2       0.047367
     35 H19         -2.0280    -4.3950     0.6600 hc         1 2L2       0.047367
     36 H20         -0.3710    -4.1170     0.1060 hc         1 2L2       0.047367
@<TRIPOS>BOND
     1     6     5 ar
     2     6     7 ar
     3     5     4 ar
     4     8     7 1
     5     7     9 ar
     6     4     3 ar
     7     9     3 ar
     8     9    10 1
     9     3     2 1
    10    10    11 1
    11     2     1 1
    12     1    11 1
    13    11    12 1
    14    12    13 1
    15    18    17 1
    16    13    17 2
    17    13    14 1
    18    17    16 1
    19    14    15 1
    20    16    15 2
    21     1    19 1
    22     1    20 1
    23     2    21 1
    24     2    22 1
    25     4    23 1
    26     5    24 1
    27     6    25 1
    28     8    26 1
    29     8    27 1
    30    10    28 1
    31    10    29 1
    32    12    30 1
    33    12    31 1
    34    14    32 1
    35    15    33 1
    36    18    34 1
    37    18    35 1
    38    18    36 1
@<TRIPOS>SUBSTRUCTURE
     1 2L2         1 TEMP              0 ****  ****    0 ROOT
