@<TRIPOS>MOLECULE
molecule
   26    27     1     0     0
SMALL
bcc


@<TRIPOS>ATOM
      1 OAF          0.0000     0.0000     0.0000 o          1 2L3      -0.683533
      2 SAQ          1.5220     0.0000     0.0000 s6         1 2L3       1.242800
      3 OAD          1.8720    -1.2370    -0.6060 o          1 2L3      -0.683533
      4 OAE          1.8720     1.2370    -0.6060 o          1 2L3      -0.683533
      5 CAP          1.9750     0.0000     1.7560 c3         1 2L3      -0.305200
      6 CAA          1.3980     1.2430     2.4360 c3         1 2L3      -0.039100
      7 CAK          3.5040     0.0000     1.8950 c3         1 2L3      -0.141400
      8 CAL          4.0430    -1.2640     1.2600 c          1 2L3       0.577700
      9 OAB          4.9970    -1.2230     0.5130 o          1 2L3      -0.527100
     10 CAN          3.3820    -2.5450     1.5700 ca         1 2L3      -0.100600
     11 CAI          4.0120    -3.7560     1.3060 ca         1 2L3      -0.087000
     12 CAG          3.3680    -4.9450     1.6060 ca         1 2L3      -0.133000
     13 CAH          2.1030    -4.9360     2.1670 ca         1 2L3      -0.131000
     14 CAJ          1.4600    -3.7410     2.4380 ca         1 2L3      -0.083000
     15 CAO          2.0920    -2.5370     2.1430 ca         1 2L3      -0.103600
     16 CAM          1.4340    -1.2470     2.4210 c          1 2L3       0.620700
     17 OAC          0.4780    -1.1870     3.1650 o          1 2L3      -0.529100
     18 H1           1.6520     1.2290     3.4890 hc         1 2L3       0.042367
     19 H2           1.8120     2.1320     1.9760 hc         1 2L3       0.042367
     20 H3           0.3200     1.2480     2.3250 hc         1 2L3       0.042367
     21 H4           3.7620     0.0040     2.9470 hc         1 2L3       0.069700
     22 H5           3.9050     0.8580     1.3680 hc         1 2L3       0.069700
     23 H8           5.0020    -3.7700     0.8660 ha         1 2L3       0.141000
     24 H9           3.8580    -5.8890     1.4000 ha         1 2L3       0.118000
     25 H10          1.6120    -5.8740     2.3970 ha         1 2L3       0.118000
     26 H11          0.4700    -3.7420     2.8770 ha         1 2L3       0.148000
@<TRIPOS>BOND
     1    13    12 ar  
     2    13    14 ar  
     3    12    11 ar  
     4    14    15 ar  
     5    11    10 ar  
     6    15    10 ar  
     7    15    16 1   
     8    10     8 1   
     9     4     2 1   
    10    17    16 2   
    11    16     5 1   
    12     3     2 1   
    13     8     9 2   
    14     8     7 1   
    15     2     5 1   
    16     2     1 1   
    17     5     7 1   
    18     5     6 1   
    19     6    18 1   
    20     6    19 1   
    21     6    20 1   
    22     7    21 1   
    23     7    22 1   
    24    11    23 1   
    25    12    24 1   
    26    13    25 1   
    27    14    26 1   
@<TRIPOS>SUBSTRUCTURE
     1 2L3         1 TEMP              0 ****  ****    0 ROOT
