@<TRIPOS>MOLECULE
2L3
   26    27     1     0     0
SMALL
bcc


@<TRIPOS>ATOM
      1 OAF        -0.1530    0.3100    0.1670 o         1 2L3     -0.722533
      2 SAQ         1.2140    0.1150   -0.0440 s6        1 2L3      1.419800
      3 OAD         1.5520   -1.0840   -0.6760 o         1 2L3     -0.722533
      4 OAE         1.9070    1.2420   -0.5100 o         1 2L3     -0.722533
      5 CAP         1.9490   -0.0710    1.7660 c3        1 2L3     -0.273200
      6 CAA         1.4530    1.1890    2.4450 c3        1 2L3     -0.062100
      7 CAK         3.4540   -0.0180    1.6620 c3        1 2L3     -0.128400
      8 CAL         4.1810   -1.3140    1.4680 c         1 2L3      0.596700
      9 OAB         5.3870   -1.3220    1.1690 o         1 2L3     -0.577100
     10 CAN         3.4450   -2.5770    1.6870 ca        1 2L3     -0.113600
     11 CAI         4.0650   -3.8010    1.4040 ca        1 2L3     -0.091000
     12 CAG         3.3790   -4.9980    1.5990 ca        1 2L3     -0.142000
     13 CAH         2.0700   -4.9800    2.0810 ca        1 2L3     -0.128000
     14 CAJ         1.4480   -3.7670    2.3660 ca        1 2L3     -0.098000
     15 CAO         2.1290   -2.5600    2.1680 ca        1 2L3     -0.092600
     16 CAM         1.4470   -1.2720    2.4700 c         1 2L3      0.625700
     17 OAC         0.4990   -1.2580    3.2710 o         1 2L3     -0.570100
     18 H1          1.8220    1.2510    3.4970 hc        1 2L3      0.039033
     19 H2          0.3340    1.1860    2.4650 hc        1 2L3      0.039033
     20 H3          1.8100    2.0870    1.8830 hc        1 2L3      0.039033
     21 H4          3.8810    0.4410    2.6000 hc        1 2L3      0.076700
     22 H5          3.7310    0.6730    0.8130 hc        1 2L3      0.076700
     23 H8          5.0960   -3.7990    1.0180 ha        1 2L3      0.145000
     24 H9          3.8680   -5.9540    1.3680 ha        1 2L3      0.118000
     25 H10         1.5250   -5.9230    2.2290 ha        1 2L3      0.119000
     26 H11         0.4140   -3.7360    2.7450 ha        1 2L3      0.149000
@<TRIPOS>BOND
     1    1    2 1   
     2    2    3 1   
     3    2    4 1   
     4    2    5 1   
     5    5    6 1   
     6    5    7 1   
     7    5   16 1   
     8    6   18 1   
     9    6   19 1   
    10    6   20 1   
    11    7    8 1   
    12    7   21 1   
    13    7   22 1   
    14    8    9 2   
    15    8   10 1   
    16   10   11 ar  
    17   10   15 ar  
    18   11   12 ar  
    19   11   23 1   
    20   12   13 ar  
    21   12   24 1   
    22   13   14 ar  
    23   13   25 1   
    24   14   15 ar  
    25   14   26 1   
    26   15   16 1   
    27   16   17 2   
@<TRIPOS>SUBSTRUCTURE
     1 2L3         1 TEMP              0 ****  ****    0 ROOT
