@<TRIPOS>MOLECULE
2L4
   38    39     1     0     0
SMALL
bcc


@<TRIPOS>ATOM
      1 C4           0.0000     0.0000     0.0000 c2         1 2L4       0.263000
      2 C6          -2.7310    -0.8470     0.6200 c2         1 2L4      -0.289000
      3 C7          -4.1320    -0.9170     0.7570 c3         1 2L4       0.213000
      4 N1           1.4380    -0.0010     2.3520 ns         1 2L4       0.156000
      5 N3           1.3490     0.0000     0.0000 ns         1 2L4       0.089000
      6 C4A         -0.7030    -0.0020     1.2920 c2         1 2L4      -0.326000
      7 O4          -0.6210     0.0060    -1.0460 o          1 2L4      -0.345000
      8 C2           2.0400     0.0000     1.1520 c2         1 2L4       0.182000
      9 O2           3.2540     0.0010     1.1050 o          1 2L4      -0.418000
     10 C8A          0.0770    -0.0020     2.4640 c2         1 2L4      -0.019000
     11 N8          -0.5170    -0.0050     3.6890 nu         1 2L4       0.137000
     12 C1'          0.3060    -0.0050     4.9010 c3         1 2L4      -0.141000
     13 C2'         -0.6010    -0.0080     6.1340 c3         1 2L4       0.062000
     14 O2'         -1.4270     1.1590     6.1190 oh         1 2L4      -0.281000
     15 C3'          0.2590    -0.0090     7.4000 c3         1 2L4       0.063000
     16 O3'          1.0840    -1.1740     7.4140 oh         1 2L4      -0.309000
     17 C4'         -0.6490    -0.0100     8.6320 c3         1 2L4       0.059000
     18 O4'         -1.4740     1.1550     8.6180 oh         1 2L4      -0.296000
     19 C5'          0.2100    -0.0110     9.8980 c3         1 2L4       0.040000
     20 O5'         -0.6320    -0.1310    11.0450 oh         1 2L4      -0.322000
     21 H1          -3.3950    -0.1530     0.1190 DU         1 2L4       0.148000
     22 O1          -4.7690    -1.7000     0.0810 o          1 2L4      -0.331000
     23 H5           1.8420     0.0010    -0.8710 hn         1 2L4       0.124000
     24 H7          -1.5140    -0.0380     3.7620 hn         1 2L4       0.122000
     25 H8           0.9330    -0.8890     4.9120 h1         1 2L4       0.076000
     26 H9           0.9310     0.8800     4.9140 h1         1 2L4       0.076000
     27 H10         -1.2260    -0.8930     6.1210 h1         1 2L4       0.060000
     28 H11         -2.3070     0.9180     5.8840 ho         1 2L4       0.194000
     29 H12          0.8830     0.8760     7.4120 h1         1 2L4       0.064000
     30 H13          1.9910    -0.9170     7.4360 ho         1 2L4       0.198000
     31 H14         -1.2740    -0.8950     8.6190 h1         1 2L4       0.057000
     32 H15         -2.2560     0.9930     9.1190 ho         1 2L4       0.200000
     33 H16          0.8980    -0.8470     9.8670 h1         1 2L4       0.037500
     34 H17          0.7690     0.9150     9.9550 h1         1 2L4       0.037500
     35 H18         -0.1010    -0.2560    11.8140 ho         1 2L4       0.196000
     36 H2          -4.6350    -0.3050     1.4960 h1         1 2L4       0.030000
     37 H161         1.9990    -0.0010     3.1810 hn         1 2L4       0.109000
     38 N5          -2.0440    -0.0020     1.3500 n2         1 2L4       0.087000
@<TRIPOS>BOND
     1     1     5 1   
     2     1     6 1   
     3     1     7 1   
     4     2     3 1   
     5     2    21 1   
     6     2    38 1   
     7     3    21 1   
     8     3    22 1   
     9     3    36 1   
    10     4     8 1   
    11     4    10 1   
    12     4    37 1   
    13     5     8 1   
    14     5    23 1   
    15     6    10 1   
    16     6    38 1   
    17     8     9 1   
    18    10    11 1   
    19    11    12 1   
    20    11    24 1   
    21    12    13 1   
    22    12    25 1   
    23    12    26 1   
    24    13    14 1   
    25    13    15 1   
    26    13    27 1   
    27    14    28 1   
    28    15    16 1   
    29    15    17 1   
    30    15    29 1   
    31    16    30 1   
    32    17    18 1   
    33    17    19 1   
    34    17    31 1   
    35    18    32 1   
    36    19    20 1   
    37    19    33 1   
    38    19    34 1   
    39    20    35 1   
@<TRIPOS>SUBSTRUCTURE
     1 2L4         1 TEMP              0 ****  ****    0 ROOT
