@<TRIPOS>MOLECULE
molecule
   38    38     1     0     0
SMALL
bcc


@<TRIPOS>ATOM
      1 C4           0.0000     0.0000     0.0000 c          1 2L4       0.708700
      2 C6          -2.7310    -0.8470     0.6200 ce         1 2L4       0.330200
      3 C7          -4.1320    -0.9170     0.7570 c          1 2L4       0.483600
      4 N1           1.4380    -0.0010     2.3520 ns         1 2L4      -0.463100
      5 N3           1.3490     0.0000     0.0000 ns         1 2L4      -0.560500
      6 C4A         -0.7030    -0.0020     1.2920 cd         1 2L4      -0.198600
      7 O4          -0.6210     0.0060    -1.0460 o          1 2L4      -0.614500
      8 C2           2.0400     0.0000     1.1520 c          1 2L4       0.821500
      9 O2           3.2540     0.0010     1.1050 o          1 2L4      -0.648500
     10 C8A          0.0770    -0.0020     2.4640 cc         1 2L4       0.361600
     11 N8          -0.5170    -0.0050     3.6890 nu         1 2L4      -0.772000
     12 C1'          0.3060    -0.0050     4.9010 c3         1 2L4       0.188800
     13 C2'         -0.6010    -0.0080     6.1340 c3         1 2L4       0.138100
     14 O2'         -1.4270     1.1590     6.1190 oh         1 2L4      -0.570800
     15 C3'          0.2590    -0.0090     7.4000 c3         1 2L4       0.144100
     16 O3'          1.0840    -1.1740     7.4140 oh         1 2L4      -0.603800
     17 C4'         -0.6490    -0.0100     8.6320 c3         1 2L4       0.140100
     18 O4'         -1.4740     1.1550     8.6180 oh         1 2L4      -0.587800
     19 C5'          0.2100    -0.0110     9.8980 c3         1 2L4       0.108400
     20 O5'         -0.6320    -0.1310    11.0450 oh         1 2L4      -0.613800
     21 H1          -2.2150    -1.5440    -0.0300 h4         1 2L4       0.013800
     22 O1          -4.7690    -1.7000     0.0810 o          1 2L4      -0.514100
     23 H5           1.8420     0.0010    -0.8710 hn         1 2L4       0.367500
     24 H7          -1.5140    -0.0280     3.7620 hn         1 2L4       0.481800
     25 H8           0.9330    -0.8890     4.9120 h1         1 2L4       0.059200
     26 H9           0.9310     0.8800     4.9140 h1         1 2L4       0.059200
     27 H10         -1.2260    -0.8930     6.1210 h1         1 2L4       0.053700
     28 H11         -2.3190     0.9110     5.9410 ho         1 2L4       0.410000
     29 H12          0.8830     0.8760     7.4120 h1         1 2L4       0.061700
     30 H13          1.9790    -0.9240     7.5770 ho         1 2L4       0.413000
     31 H14         -1.2740    -0.8950     8.6190 h1         1 2L4       0.052700
     32 H15         -2.2000     1.0340     9.2070 ho         1 2L4       0.418000
     33 H16          0.7690     0.9150     9.9550 h1         1 2L4       0.032200
     34 H17          0.8980    -0.8470     9.8670 h1         1 2L4       0.032200
     35 H18         -0.1000    -0.1960    11.8210 ho         1 2L4       0.411000
     36 H2          -4.6430    -0.2590     1.4490 h4         1 2L4       0.002200
     37 H161         1.9990    -0.0010     3.1810 hn         1 2L4       0.359500
     38 N5          -2.0440    -0.0020     1.3500 nf         1 2L4      -0.506300
@<TRIPOS>BOND
     1     1     6 1
     2     1     5 1
     3     2    38 2
     4     2    21 1
     5     3     2 1
     6     3    22 2
     7     5     8 1
     8     5    23 1
     9    38     6 1
    10     6    10 2
    11     7     1 2
    12     8     9 2
    13     8     4 1
    14    10     4 1
    15    10    11 1
    16    11    12 1
    17    11    24 1
    18    12    25 1
    19    12    26 1
    20    13    12 1
    21    13    27 1
    22    14    13 1
    23    14    28 1
    24    15    13 1
    25    15    16 1
    26    15    29 1
    27    16    30 1
    28    17    15 1
    29    17    19 1
    30    17    31 1
    31    18    17 1
    32    18    32 1
    33    19    33 1
    34    19    34 1
    35    20    19 1
    36    20    35 1
    37     3    36 1
    38     4    37 1
@<TRIPOS>SUBSTRUCTURE
     1 2L4         1 TEMP              0 ****  ****    0 ROOT
