@<TRIPOS>MOLECULE
2L7
   36    36     1     0     0
SMALL
bcc


@<TRIPOS>ATOM
      1 N01          0.0000     0.0000     0.0000 nz         1 2L7       0.077400
      2 C02          1.4680     0.0000     0.0000 c3         1 2L7      -0.199500
      3 C03          1.9790     0.0000     1.4430 c3         1 2L7       0.045900
      4 C04          1.5800     1.2870     2.1160 ca         1 2L7      -0.157300
      5 C05          2.4190     2.3850     2.0590 ca         1 2L7      -0.085500
      6 C06          2.0550     3.5680     2.6700 ca         1 2L7      -0.109000
      7 C07          0.8430     3.6550     3.3440 ca         1 2L7      -0.079400
      8 N08          0.4710     4.8530     3.9650 ns         1 2L7      -0.029100
      9 C09          0.8380     6.0340     3.4260 c          1 2L7       0.565100
     10 C10          0.5400     7.3180     4.1560 c3         1 2L7       0.022400
     11 C11          0.8270     8.5060     3.2350 c3         1 2L7       0.005900
     12 Br1         -1.3520     7.3450     4.6900 br         1 2L7      -0.220400
     13 C13          1.4230     7.4150     5.4010 c3         1 2L7       0.005900
     14 O14          1.4070     6.0610     2.3570 o          1 2L7      -0.613100
     15 C15          0.0030     2.5520     3.4000 ca         1 2L7      -0.109000
     16 C16          0.3730     1.3710     2.7870 ca         1 2L7      -0.085500
     17 C17          1.9710    -1.2310    -0.7100 c          1 2L7       0.956600
     18 O18          3.2250    -1.2650    -1.1880 o          1 2L7      -0.820300
     19 O19          1.2450    -2.1860    -0.8490 o          1 2L7      -0.820300
     20 H1          -0.3340    -0.2700    -0.9040 hn         1 2L7       0.212800
     21 H2          -0.3340     0.9180     0.2180 hn         1 2L7       0.212800
     22 H4           1.8300     0.8840    -0.5110 hx         1 2L7       0.089700
     23 H5           1.5470    -0.8370     1.9790 hc         1 2L7       0.055700
     24 H6           3.0580    -0.0890     1.4440 hc         1 2L7       0.055700
     25 H7           3.3640     2.3170     1.5330 ha         1 2L7       0.110000
     26 H8           2.7130     4.4280     2.6250 ha         1 2L7       0.128500
     27 H9          -0.0800     4.8340     4.8000 hn         1 2L7       0.182500
     28 H10          1.8880     8.5510     3.0240 hc         1 2L7       0.024867
     29 H11          0.2800     8.3840     2.3070 hc         1 2L7       0.024867
     30 H12          0.5150     9.4230     3.7200 hc         1 2L7       0.024867
     31 H13          1.1000     6.6810     6.1300 hc         1 2L7       0.024867
     32 H14          2.4540     7.2230     5.1290 hc         1 2L7       0.024867
     33 H15          1.3400     8.4070     5.8270 hc         1 2L7       0.024867
     34 H16         -0.9420     2.6170     3.9250 ha         1 2L7       0.128500
     35 H17         -0.2830     0.5100     2.8310 ha         1 2L7       0.110000
     36 H013        -0.3340    -0.6750     0.6590 hn         1 2L7       0.212800
@<TRIPOS>BOND
     1     1     2 1   
     2     1    20 1   
     3     1    21 1   
     4     1    36 1   
     5     2     3 1   
     6     2    17 1   
     7     2    22 1   
     8     3     4 1   
     9     3    23 1   
    10     3    24 1   
    11     4     5 ar  
    12     4    16 ar  
    13     5     6 ar  
    14     5    25 1   
    15     6     7 ar  
    16     6    26 1   
    17     7     8 1   
    18     7    15 ar  
    19     8     9 1   
    20     8    27 1   
    21     9    10 1   
    22     9    14 2   
    23    10    11 1   
    24    10    12 1   
    25    10    13 1   
    26    11    28 1   
    27    11    29 1   
    28    11    30 1   
    29    13    31 1   
    30    13    32 1   
    31    13    33 1   
    32    15    16 ar  
    33    15    34 1   
    34    16    35 1   
    35    17    18 1   
    36    17    19 1   
@<TRIPOS>SUBSTRUCTURE
     1 2L7         1 TEMP              0 ****  ****    0 ROOT
