@<TRIPOS>MOLECULE
molecule
   26    27     1     0     0
SMALL
bcc


@<TRIPOS>ATOM
      1 OAF          0.0000     0.0000     0.0000 o          1 2LB      -0.684200
      2 SAQ          1.4210     0.0000     0.0000 s6         1 2LB       1.243800
      3 OAD          1.7960    -1.3700    -0.5460 o          1 2LB      -0.684200
      4 OAE          2.1540     0.9110    -0.8070 o          1 2LB      -0.684200
      5 CAP          2.0580     0.0000     1.6980 c3         1 2LB      -0.305200
      6 CAA          3.5720    -0.2200     1.6790 c3         1 2LB      -0.039100
      7 CAK          1.7410     1.3440     2.3680 c3         1 2LB      -0.141400
      8 CAL          0.2380     1.5110     2.4200 c          1 2LB       0.577700
      9 OAB         -0.2810     2.5580     2.0970 o          1 2LB      -0.527100
     10 CAN         -0.5820     0.3720     2.8730 ca         1 2LB      -0.101600
     11 CAI         -1.9050     0.5540     3.2640 ca         1 2LB      -0.087000
     12 CAG         -2.6520    -0.5340     3.6830 ca         1 2LB      -0.133000
     13 CAH         -2.0930    -1.7990     3.7160 ca         1 2LB      -0.131000
     14 CAJ         -0.7790    -2.0010     3.3310 ca         1 2LB      -0.083000
     15 CAO         -0.0140    -0.9200     2.9070 ca         1 2LB      -0.103600
     16 CAM          1.3910    -1.1010     2.4920 c          1 2LB       0.620700
     17 OAC          1.9960    -2.1120     2.7800 o          1 2LB      -0.529100
     18 H1           3.9460    -0.2410     2.6960 hc         1 2LB       0.042033
     19 H2           3.7940    -1.1620     1.1930 hc         1 2LB       0.042033
     20 H3           4.0480     0.5880     1.1360 hc         1 2LB       0.042033
     21 H4           2.1640     2.1440     1.7720 hc         1 2LB       0.069700
     22 H5           2.1300     1.3340     3.3790 hc         1 2LB       0.069700
     23 H8          -2.3490     1.5420     3.2410 ha         1 2LB       0.141000
     24 H9          -3.6810    -0.3930     3.9880 ha         1 2LB       0.117000
     25 H10         -2.6900    -2.6410     4.0470 ha         1 2LB       0.118000
     26 H11         -0.3490    -2.9950     3.3600 ha         1 2LB       0.148000
@<TRIPOS>BOND
     1    17    16 2   
     2    14    13 ar  
     3    14    15 ar  
     4     6     5 1   
     5    16    15 1   
     6    16     5 1   
     7     4     2 1   
     8    13    12 ar  
     9    15    10 ar  
    10     5     2 1   
    11     5     7 1   
    12     1     2 1   
    13     2     3 1   
    14    12    11 ar  
    15    10    11 ar  
    16    10     8 1   
    17     7     8 1   
    18     8     9 2   
    19     6    18 1   
    20     6    19 1   
    21     6    20 1   
    22     7    21 1   
    23     7    22 1   
    24    11    23 1   
    25    12    24 1   
    26    13    25 1   
    27    14    26 1   
@<TRIPOS>SUBSTRUCTURE
     1 2LB         1 TEMP              0 ****  ****    0 ROOT
