@<TRIPOS>MOLECULE
2LB
   26    27     1     0     0
SMALL
bcc


@<TRIPOS>ATOM
      1 OAF         0.1730   -0.2330   -0.2250 o         1 2LB     -0.722533
      2 SAQ         1.5700   -0.2440   -0.1900 s6        1 2LB      1.419800
      3 OAD         2.1620   -1.4560   -0.5530 o         1 2LB     -0.722533
      4 OAE         2.1810    0.8980   -0.7260 o         1 2LB     -0.722533
      5 CAP         2.0060   -0.0580    1.7150 c3        1 2LB     -0.273200
      6 CAA         3.5130   -0.2010    1.7140 c3        1 2LB     -0.062100
      7 CAK         1.6410    1.3440    2.1390 c3        1 2LB     -0.128400
      8 CAL         0.2530    1.5720    2.6570 c         1 2LB      0.596700
      9 OAB        -0.1760    2.7250    2.8250 o         1 2LB     -0.577100
     10 CAN        -0.5720    0.3970    3.0080 ca        1 2LB     -0.113600
     11 CAI        -1.9100    0.5740    3.3870 ca        1 2LB     -0.091000
     12 CAG        -2.6990   -0.5260    3.7120 ca        1 2LB     -0.142000
     13 CAH        -2.1580   -1.8110    3.6640 ca        1 2LB     -0.128000
     14 CAJ        -0.8290   -1.9950    3.2910 ca        1 2LB     -0.098000
     15 CAO        -0.0300   -0.8940    2.9570 ca        1 2LB     -0.092600
     16 CAM         1.3850   -1.1090    2.5520 c         1 2LB      0.625700
     17 OAC         1.9730   -2.1420    2.9130 o         1 2LB     -0.570100
     18 H1          3.7930   -1.2160    1.3370 hc        1 2LB      0.039033
     19 H2          3.9290   -0.0820    2.7430 hc        1 2LB      0.039033
     20 H3          3.9670    0.5770    1.0500 hc        1 2LB      0.039033
     21 H4          1.8090    2.0380    1.2640 hc        1 2LB      0.076700
     22 H5          2.3380    1.6840    2.9560 hc        1 2LB      0.076700
     23 H8         -2.3240    1.5940    3.4140 ha        1 2LB      0.145000
     24 H9         -3.7500   -0.3810    4.0010 ha        1 2LB      0.118000
     25 H10        -2.7820   -2.6810    3.9150 ha        1 2LB      0.119000
     26 H11        -0.3880   -3.0030    3.2460 ha        1 2LB      0.149000
@<TRIPOS>BOND
     1    1    2 1   
     2    2    3 1   
     3    2    4 1   
     4    2    5 1   
     5    5    6 1   
     6    5    7 1   
     7    5   16 1   
     8    6   18 1   
     9    6   19 1   
    10    6   20 1   
    11    7    8 1   
    12    7   21 1   
    13    7   22 1   
    14    8    9 2   
    15    8   10 1   
    16   10   11 ar  
    17   10   15 ar  
    18   11   12 ar  
    19   11   23 1   
    20   12   13 ar  
    21   12   24 1   
    22   13   14 ar  
    23   13   25 1   
    24   14   15 ar  
    25   14   26 1   
    26   15   16 1   
    27   16   17 2   
@<TRIPOS>SUBSTRUCTURE
     1 2LB         1 TEMP              0 ****  ****    0 ROOT
