@<TRIPOS>MOLECULE
2LC
   56    59     1     0     0
SMALL
bcc


@<TRIPOS>ATOM
      1 C1           0.0000     0.0000     0.0000 c3         1 2LC       0.092200
      2 C2           1.5070     0.0000     0.0000 cc         1 2LC      -0.034300
      3 C3           2.3190     0.0000     1.0780 cd         1 2LC      -0.371300
      4 N4           3.6250    -0.0010     0.6590 na         1 2LC       0.555800
      5 C5           3.6850    -0.0040    -0.6790 cd         1 2LC      -0.282600
      6 C6           2.3820    -0.0080    -1.1600 cc         1 2LC      -0.236600
      7 C7           2.0830    -0.0130    -2.5960 c          1 2LC       0.661700
      8 O8           0.9670    -0.2140    -3.0280 o          1 2LC      -0.541100
      9 C9           3.2760     0.2530    -3.5030 c3         1 2LC      -0.111400
     10 C10          4.4750    -0.5340    -2.9670 c3         1 2LC      -0.062000
     11 C11          4.1000    -2.0140    -2.8600 c3         1 2LC      -0.001600
     12 C12          5.6510    -0.3820    -3.9340 c3         1 2LC      -0.001600
     13 C13          4.8890    -0.0100    -1.5850 c3         1 2LC       0.071900
     14 C14          4.7360     0.0020     1.5080 ca         1 2LC      -0.024200
     15 C15          4.8110     0.9230     2.5440 ca         1 2LC      -0.207000
     16 C16          5.9090     0.9300     3.3900 ca         1 2LC       0.156600
     17 N17          5.9860     1.8520     4.4260 nu         1 2LC      -0.387600
     18 C18          4.9040     2.8180     4.6280 c3         1 2LC       0.080500
     19 C20          4.8620     3.2860     6.1000 c3         1 2LC      -0.064400
     20 C21          5.1180     4.8070     6.0170 c3         1 2LC       0.208400
     21 O22          4.7090     5.1790     4.6830 os         1 2LC      -0.370600
     22 C23          5.1790     4.1130     3.8300 c3         1 2LC       0.195400
     23 C24          6.9460     0.0010     3.1940 ca         1 2LC      -0.394600
     24 C25          8.1150    -0.0000     4.0850 c          1 2LC       0.381700
     25 N26          9.1930     0.7520     3.7840 nz         1 2LC       0.190600
     26 O27          8.1110    -0.6810     5.0940 o          1 2LC      -0.388100
     27 C28          6.8580    -0.9250     2.1460 ca         1 2LC       0.219900
     28 F29          7.8510    -1.8210     1.9510 f          1 2LC      -0.116900
     29 C30          5.7570    -0.9230     1.3160 ca         1 2LC      -0.188000
     30 H1          -0.3610     0.0620     1.0190 hc         1 2LC       0.017033
     31 H2          -0.3610    -0.9140    -0.4560 hc         1 2LC       0.017033
     32 H3          -0.3610     0.8520    -0.5630 hc         1 2LC       0.017033
     33 H4           1.9910    -0.0010     2.1100 h4         1 2LC       0.157000
     34 H5           3.0470    -0.0740    -4.5100 hc         1 2LC       0.045200
     35 H6           3.5050     1.3120    -3.5010 hc         1 2LC       0.045200
     36 H7           3.3510    -2.1420    -2.0880 hc         1 2LC       0.012367
     37 H8           3.7010    -2.3540    -3.8090 hc         1 2LC       0.012367
     38 H9           4.9800    -2.5930    -2.6100 hc         1 2LC       0.012367
     39 H10          6.5090    -0.9170    -3.5460 hc         1 2LC       0.012367
     40 H11          5.8970     0.6670    -4.0400 hc         1 2LC       0.012367
     41 H12          5.3780    -0.7880    -4.9000 hc         1 2LC       0.012367
     42 H13          5.2320     1.0110    -1.6990 hc         1 2LC       0.024200
     43 H14          5.6210    -0.6920    -1.1700 hc         1 2LC       0.024200
     44 H15          4.0120     1.6400     2.6900 ha         1 2LC       0.157000
     45 H16          6.7610     1.8290     5.0590 hn         1 2LC       0.272800
     46 H17          3.9490     2.3940     4.3410 h1         1 2LC       0.067700
     47 H18          3.8890     3.0890     6.5320 hc         1 2LC       0.035700
     48 H19          5.6440     2.8010     6.6730 hc         1 2LC       0.035700
     49 H20          6.1710     5.0190     6.1590 h1         1 2LC       0.019700
     50 H21          4.5190     5.3300     6.7530 h1         1 2LC       0.019700
     51 H22          6.2400     4.2210     3.6440 h1         1 2LC       0.012700
     52 H23          4.6250     4.1050     2.8990 h1         1 2LC       0.012700
     53 H24          9.4470     1.3040     4.5800 hn         1 2LC       0.249133
     54 H25          9.9570     0.1550     3.5340 hn         1 2LC       0.249133
     55 H26          5.6900    -1.6390     0.5060 ha         1 2LC       0.163000
     56 H263         8.9810     1.3420     3.0040 hn         1 2LC       0.249133
@<TRIPOS>BOND
     1     1     2 1   
     2     1    30 1   
     3     1    31 1   
     4     1    32 1   
     5     2     3 2   
     6     2     6 1   
     7     3     4 1   
     8     3    33 1   
     9     4     5 1   
    10     4    14 1   
    11     5     6 2   
    12     5    13 1   
    13     6     7 1   
    14     7     8 2   
    15     7     9 1   
    16     9    10 1   
    17     9    34 1   
    18     9    35 1   
    19    10    11 1   
    20    10    12 1   
    21    10    13 1   
    22    11    36 1   
    23    11    37 1   
    24    11    38 1   
    25    12    39 1   
    26    12    40 1   
    27    12    41 1   
    28    13    42 1   
    29    13    43 1   
    30    14    15 ar  
    31    14    29 ar  
    32    15    16 ar  
    33    15    44 1   
    34    16    17 1   
    35    16    23 ar  
    36    17    18 1   
    37    17    45 1   
    38    18    19 1   
    39    18    22 1   
    40    18    46 1   
    41    19    20 1   
    42    19    47 1   
    43    19    48 1   
    44    20    21 1   
    45    20    49 1   
    46    20    50 1   
    47    21    22 1   
    48    22    51 1   
    49    22    52 1   
    50    23    24 1   
    51    23    27 ar  
    52    24    25 1   
    53    24    26 2   
    54    25    53 1   
    55    25    54 1   
    56    25    56 1   
    57    27    28 1   
    58    27    29 ar  
    59    29    55 1   
@<TRIPOS>SUBSTRUCTURE
     1 2LC         1 TEMP              0 ****  ****    0 ROOT
