@<TRIPOS>MOLECULE
2LD
   29    30     1     0     0
SMALL
bcc


@<TRIPOS>ATOM
      1 C4           0.0000     0.0000     0.0000 ca         1 2LD      -0.098000
      2 C5           2.0730     0.0000     1.1980 ca         1 2LD      -0.098000
      3 C6           1.3830     0.0000     0.0000 ca         1 2LD      -0.093300
      4 C7           2.4470    -1.3390    -4.2640 cc         1 2LD      -0.077000
      5 C8           4.4920    -1.5490    -3.0520 cd         1 2LD      -0.163400
      6 C10          3.1460    -1.3420    -5.4370 cd         1 2LD       0.003900
      7 C13          2.3900    -1.4440    -1.7450 c3         1 2LD       0.048800
      8 C1          -0.0010    -0.0050     2.3940 ca         1 2LD      -0.103000
      9 C2          -0.6920     0.0010     1.1970 ca         1 2LD      -0.097500
     10 C3           1.3820     0.0020     2.3950 ca         1 2LD      -0.097500
     11 C9           3.1440    -1.4460    -3.0510 cc         1 2LD      -0.171200
     12 C11          4.5510    -1.4560    -5.4020 c          1 2LD       0.555700
     13 C12          2.1360    -0.0020    -1.3050 c3         1 2LD       0.030900
     14 N14          5.1880    -1.5630    -4.2200 ns         1 2LD       0.090900
     15 O15          5.1900    -1.4610    -6.4430 o          1 2LD      -0.686500
     16 H1          -0.5410     0.0020    -0.9380 ha         1 2LD       0.104000
     17 H2           3.1560     0.0020     1.1980 ha         1 2LD       0.104000
     18 H3           1.3670    -1.2550    -4.2690 ha         1 2LD       0.120000
     19 H4           5.0230    -1.6330    -2.1120 h4         1 2LD       0.129000
     20 H5           1.4430    -1.9540    -1.8750 hc         1 2LD       0.020200
     21 H6           2.9740    -1.9550    -0.9900 hc         1 2LD       0.020200
     22 H7          -0.5430    -0.0040     3.3320 ha         1 2LD       0.102000
     23 H8          -1.7750    -0.0020     1.1960 ha         1 2LD       0.102500
     24 H9           1.9230    -0.0000     3.3330 ha         1 2LD       0.102500
     25 H11          1.5500     0.5090    -2.0600 hc         1 2LD       0.021200
     26 H12          3.0830     0.5080    -1.1760 hc         1 2LD       0.021200
     27 H13          2.1320    -2.0730    -6.8630 ho         1 2LD       0.400000
     28 H10          6.1860    -1.6420    -4.2010 hn         1 2LD       0.170500
     29 O16          2.4940    -1.2350    -6.6260 oh         1 2LD      -0.462100
@<TRIPOS>BOND
     1     1     3 ar  
     2     1     9 ar  
     3     1    16 1   
     4     2     3 ar  
     5     2    10 ar  
     6     2    17 1   
     7     3    13 1   
     8     4     6 2   
     9     4    11 1   
    10     4    18 1   
    11     5    11 2   
    12     5    14 1   
    13     5    19 1   
    14     6    12 1   
    15     6    29 1   
    16     7    11 1   
    17     7    13 1   
    18     7    20 1   
    19     7    21 1   
    20     8     9 ar  
    21     8    10 ar  
    22     8    22 1   
    23     9    23 1   
    24    10    24 1   
    25    12    14 1   
    26    12    15 2   
    27    13    25 1   
    28    13    26 1   
    29    14    28 1   
    30    27    29 1   
@<TRIPOS>SUBSTRUCTURE
     1 2LD         1 TEMP              0 ****  ****    0 ROOT
