@<TRIPOS>MOLECULE
molecule
   29    30     1     0     0
SMALL
bcc


@<TRIPOS>ATOM
      1 C4           0.0000     0.0000     0.0000 ca         1 2LD      -0.125000
      2 C5           2.0730     0.0000     1.1980 ca         1 2LD      -0.125000
      3 C6           1.3830     0.0000     0.0000 ca         1 2LD      -0.086300
      4 C7           2.4470    -1.3390    -4.2640 cc         1 2LD      -0.081000
      5 C8           4.4920    -1.5490    -3.0520 cc         1 2LD      -0.004400
      6 C10          3.1460    -1.3420    -5.4370 cd         1 2LD      -0.019100
      7 C13          2.3900    -1.4440    -1.7450 c3         1 2LD      -0.017200
      8 C1          -0.0010    -0.0050     2.3940 ca         1 2LD      -0.129000
      9 C2          -0.6920     0.0010     1.1970 ca         1 2LD      -0.124500
     10 C3           1.3820     0.0020     2.3950 ca         1 2LD      -0.124500
     11 C9           3.1440    -1.4460    -3.0510 cd         1 2LD      -0.186200
     12 C11          4.5510    -1.4560    -5.4020 c          1 2LD       0.667700
     13 C12          2.1360    -0.0020    -1.3050 c3         1 2LD      -0.033100
     14 N14          5.1880    -1.5630    -4.2200 ns         1 2LD      -0.407100
     15 O15          5.1900    -1.4610    -6.4430 o          1 2LD      -0.636500
     16 H1          -0.5410     0.0020    -0.9380 ha         1 2LD       0.128500
     17 H2           3.1560     0.0020     1.1980 ha         1 2LD       0.128500
     18 H3           1.3670    -1.2550    -4.2690 ha         1 2LD       0.147000
     19 H4           5.0230    -1.6330    -2.1120 h4         1 2LD       0.155000
     20 H5           1.4430    -1.9540    -1.8750 hc         1 2LD       0.052700
     21 H6           2.9740    -1.9550    -0.9900 hc         1 2LD       0.052700
     22 H7          -0.5430    -0.0040     3.3320 ha         1 2LD       0.130000
     23 H8          -1.7750    -0.0020     1.1960 ha         1 2LD       0.130000
     24 H9           1.9230    -0.0000     3.3330 ha         1 2LD       0.130000
     25 H11          1.5500     0.5090    -2.0600 hc         1 2LD       0.053200
     26 H12          3.0830     0.5080    -1.1760 hc         1 2LD       0.053200
     27 H13          2.1320    -2.0730    -6.8630 ho         1 2LD       0.417000
     28 H10          6.1860    -1.6420    -4.2010 hn         1 2LD       0.340500
     29 O16          2.4940    -1.2350    -6.6260 oh         1 2LD      -0.484100
@<TRIPOS>BOND
     1     5    14 1   
     2     5    11 2   
     3    14    12 1   
     4     7    11 1   
     5     7    13 1   
     6    11     4 1   
     7     2    10 ar  
     8     2     3 ar  
     9    12    15 2   
    10    12     6 1   
    11    10     8 ar  
    12    13     3 1   
    13     4     6 2   
    14     3     1 ar  
    15     6    29 1   
    16     8     9 ar  
    17     1     9 ar  
    18     1    16 1   
    19     2    17 1   
    20     4    18 1   
    21     5    19 1   
    22     7    20 1   
    23     7    21 1   
    24     8    22 1   
    25     9    23 1   
    26    10    24 1   
    27    13    25 1   
    28    13    26 1   
    29    29    27 1   
    30    14    28 1   
@<TRIPOS>SUBSTRUCTURE
     1 2LD         1 TEMP              0 ****  ****    0 ROOT
