@<TRIPOS>MOLECULE
2LE
   29    29     1     0     0
SMALL
bcc


@<TRIPOS>ATOM
      1 C1         -0.0260   -0.0720    0.0570 c3        1 2LE      0.332900
      2 O1         -0.2520    0.8450   -0.9900 oh        1 2LE     -0.626800
      3 C2          1.4720   -0.3890    0.1360 c3        1 2LE     -0.101400
      4 C3          1.9500    0.2630    1.4260 c3        1 2LE     -0.105400
      5 C4          0.7330    0.9880    2.0150 c3        1 2LE      0.144100
      6 O4         -0.4210    0.6100    1.2400 os        1 2LE     -0.457600
      7 C5          0.4800    0.6230    3.4700 c3        1 2LE     -0.083400
      8 C6         -0.6110    1.4810    4.0740 c3        1 2LE     -0.078400
      9 C7         -0.8900    1.0840    5.5070 c3        1 2LE     -0.078400
     10 C8         -1.9730    1.9490    6.1150 c3        1 2LE     -0.080400
     11 C9         -2.2590    1.5560    7.5420 c3        1 2LE     -0.092100
     12 H1         -0.6880   -0.9720   -0.0520 h2        1 2LE      0.063700
     13 H12         1.9990    0.0300   -0.7560 hc        1 2LE      0.066700
     14 H22         1.6290   -1.4940    0.1530 hc        1 2LE      0.066700
     15 H3          2.3360   -0.5060    2.1400 hc        1 2LE      0.054700
     16 H4          0.8390    2.1030    1.9050 h1        1 2LE      0.054700
     17 H15         0.1910   -0.4580    3.5370 hc        1 2LE      0.047700
     18 H25         1.4350    0.7610    4.0410 hc        1 2LE      0.047700
     19 H16        -1.5430    1.3740    3.4580 hc        1 2LE      0.047200
     20 H26        -0.3080    2.5600    4.0340 hc        1 2LE      0.047200
     21 H17        -1.2050    0.0070    5.5450 hc        1 2LE      0.038200
     22 H27         0.0490    1.1750    6.1140 hc        1 2LE      0.038200
     23 H18        -2.9100    1.8590    5.5040 hc        1 2LE      0.039700
     24 H28        -1.6570    3.0250    6.0770 hc        1 2LE      0.039700
     25 H19        -2.6000    0.4940    7.5970 hc        1 2LE      0.032367
     26 H29        -1.3430    1.6620    8.1710 hc        1 2LE      0.032367
     27 H39        -3.0590    2.2060    7.9710 hc        1 2LE      0.032367
     28 HO1        -1.0650    1.3250   -0.7860 ho        1 2LE      0.423000
     29 H3A         2.7750    0.9900    1.2280 hc        1 2LE      0.054700
@<TRIPOS>BOND
     1    1    2 1   
     2    1    3 1   
     3    1    6 1   
     4    1   12 1   
     5    2   28 1   
     6    3    4 1   
     7    3   13 1   
     8    3   14 1   
     9    4    5 1   
    10    4   15 1   
    11    4   29 1   
    12    5    6 1   
    13    5    7 1   
    14    5   16 1   
    15    7    8 1   
    16    7   17 1   
    17    7   18 1   
    18    8    9 1   
    19    8   19 1   
    20    8   20 1   
    21    9   10 1   
    22    9   21 1   
    23    9   22 1   
    24   10   11 1   
    25   10   23 1   
    26   10   24 1   
    27   11   25 1   
    28   11   26 1   
    29   11   27 1   
@<TRIPOS>SUBSTRUCTURE
     1 2LE         1 TEMP              0 ****  ****    0 ROOT
