@<TRIPOS>MOLECULE
molecule
   29    29     1     0     0
SMALL
bcc


@<TRIPOS>ATOM
      1 C1           0.0000     0.0000     0.0000 c3         1 2LE       0.332900
      2 O1          -0.4860     0.8480    -1.0430 oh         1 2LE      -0.606800
      3 C2           1.5430     0.0000     0.0000 c3         1 2LE      -0.109400
      4 C3           1.8730     0.0000     1.5170 c3         1 2LE      -0.117400
      5 C4           0.7050     0.8550     2.0720 c3         1 2LE       0.143100
      6 O4          -0.4330     0.4970     1.2720 os         1 2LE      -0.431600
      7 C5           0.4510     0.5150     3.5420 c3         1 2LE      -0.080400
      8 C6          -0.6190     1.4530     4.1050 c3         1 2LE      -0.080400
      9 C7          -0.8730     1.1140     5.5750 c3         1 2LE      -0.082400
     10 C8          -1.9430     2.0520     6.1370 c3         1 2LE      -0.083400
     11 C9          -2.1970     1.7130     7.6070 c3         1 2LE      -0.092100
     12 H1          -0.3650    -1.0100    -0.1410 h2         1 2LE       0.045700
     13 H12          1.9270     0.8940    -0.4760 hc         1 2LE       0.065200
     14 H22          1.9270    -0.8940    -0.4760 hc         1 2LE       0.065200
     15 H3           1.8440    -1.0050     1.9200 hc         1 2LE       0.057700
     16 H4           0.9260     1.9090     1.9570 h1         1 2LE       0.054700
     17 H15          0.1100    -0.5100     3.6220 hc         1 2LE       0.049200
     18 H25          1.3690     0.6350     4.1050 hc         1 2LE       0.049200
     19 H16         -0.2780     2.4780     4.0250 hc         1 2LE       0.049200
     20 H26         -1.5370     1.3320     3.5430 hc         1 2LE       0.049200
     21 H17         -1.2130     0.0880     5.6550 hc         1 2LE       0.039200
     22 H27          0.0450     1.2350     6.1370 hc         1 2LE       0.039200
     23 H18         -2.8610     1.9310     5.5750 hc         1 2LE       0.041200
     24 H28         -1.6020     3.0770     6.0570 hc         1 2LE       0.041200
     25 H19         -2.9540     2.3770     8.0050 hc         1 2LE       0.032033
     26 H29         -2.5370     0.6870     7.6880 hc         1 2LE       0.032033
     27 H39         -1.2790     1.8330     8.1700 hc         1 2LE       0.032033
     28 HO1         -1.3020     0.5080    -1.3710 ho         1 2LE       0.408000
     29 H3A          2.8270     0.4770     1.7060 hc         1 2LE       0.057700
@<TRIPOS>BOND
     1     2     1 1
     2    12     1 1
     3     1     3 1
     4     1     6 1
     5     2    28 1
     6    13     3 1
     7     3    14 1
     8     3     4 1
     9    15     4 1
    10     4     5 1
    11     4    29 1
    12     6     5 1
    13     5    16 1
    14     5     7 1
    15    18     7 1
    16     7    17 1
    17     7     8 1
    18     8    19 1
    19     8    20 1
    20     8     9 1
    21    10     9 1
    22     9    21 1
    23     9    22 1
    24    11    10 1
    25    23    10 1
    26    10    24 1
    27    25    11 1
    28    11    26 1
    29    11    27 1
@<TRIPOS>SUBSTRUCTURE
     1 2LE         1 TEMP              0 ****  ****    0 ROOT
