@<TRIPOS>MOLECULE
2LE
   29    29     1     0     0
SMALL
bcc


@<TRIPOS>ATOM
      1 C1         -0.0200   -0.0610    0.0540 c3        1 2LE      0.332900
      2 O1         -0.2330    0.8610   -0.9900 oh        1 2LE     -0.626800
      3 C2          1.4740   -0.3930    0.1390 c3        1 2LE     -0.101400
      4 C3          1.9520    0.2480    1.4340 c3        1 2LE     -0.105400
      5 C4          0.7410    0.9840    2.0200 c3        1 2LE      0.144100
      6 O4         -0.4140    0.6200    1.2380 os        1 2LE     -0.457600
      7 C5          0.4780    0.6160    3.4730 c3        1 2LE     -0.083400
      8 C6         -0.6080    1.4820    4.0740 c3        1 2LE     -0.078400
      9 C7         -0.8980    1.0820    5.5050 c3        1 2LE     -0.078400
     10 C8         -1.9750    1.9560    6.1120 c3        1 2LE     -0.080400
     11 C9         -2.2720    1.5600    7.5350 c3        1 2LE     -0.092100
     12 H1         -0.6900   -0.9550   -0.0620 h2        1 2LE      0.063700
     13 H12         2.0090    0.0240   -0.7490 hc        1 2LE      0.066700
     14 H22         1.6210   -1.5000    0.1520 hc        1 2LE      0.066700
     15 H3          2.3280   -0.5280    2.1460 hc        1 2LE      0.054700
     16 H4          0.8580    2.0970    1.9140 h1        1 2LE      0.054700
     17 H15         0.1780   -0.4630    3.5340 hc        1 2LE      0.047700
     18 H25         1.4310    0.7430    4.0480 hc        1 2LE      0.047700
     19 H16        -1.5390    1.3860    3.4540 hc        1 2LE      0.047200
     20 H26        -0.2950    2.5580    4.0400 hc        1 2LE      0.047200
     21 H17        -1.2230    0.0090    5.5370 hc        1 2LE      0.038200
     22 H27         0.0390    1.1620    6.1170 hc        1 2LE      0.038200
     23 H18        -2.9100    1.8770    5.4960 hc        1 2LE      0.039700
     24 H28        -1.6490    3.0290    6.0790 hc        1 2LE      0.039700
     25 H19        -3.0670    2.2160    7.9630 hc        1 2LE      0.032367
     26 H29        -1.3570    1.6550    8.1690 hc        1 2LE      0.032367
     27 H39        -2.6230    0.5010    7.5850 hc        1 2LE      0.032367
     28 HO1        -1.0420    1.3480   -0.7880 ho        1 2LE      0.423000
     29 H3A         2.7850    0.9680    1.2430 hc        1 2LE      0.054700
@<TRIPOS>BOND
     1    1    2 1   
     2    1    3 1   
     3    1    6 1   
     4    1   12 1   
     5    2   28 1   
     6    3    4 1   
     7    3   13 1   
     8    3   14 1   
     9    4    5 1   
    10    4   15 1   
    11    4   29 1   
    12    5    6 1   
    13    5    7 1   
    14    5   16 1   
    15    7    8 1   
    16    7   17 1   
    17    7   18 1   
    18    8    9 1   
    19    8   19 1   
    20    8   20 1   
    21    9   10 1   
    22    9   21 1   
    23    9   22 1   
    24   10   11 1   
    25   10   23 1   
    26   10   24 1   
    27   11   25 1   
    28   11   26 1   
    29   11   27 1   
@<TRIPOS>SUBSTRUCTURE
     1 2LE         1 TEMP              0 ****  ****    0 ROOT
