@<TRIPOS>MOLECULE
2LG
   49    51     1     0     0
SMALL
bcc


@<TRIPOS>ATOM
      1 C4          0.7390   -1.2740   -0.1720 c3        1 2LG     -0.019100
      2 C6          0.8830    0.1420    1.8760 c3        1 2LG      0.001900
      3 C7          4.3840   -0.2860    0.1890 cc        1 2LG     -0.046500
      4 C8          3.6410   -1.6860   -1.7240 ch        1 2LG      0.283800
      5 C13         7.5860    0.3530   -1.6370 ca        1 2LG     -0.172600
      6 C15         7.6320    0.5250   -3.0200 ca        1 2LG      0.065000
      7 C17         8.7980    0.2480   -3.7600 ca        1 2LG     -0.527500
      8 C21         9.9380   -0.1880   -3.0440 ca        1 2LG      0.022000
      9 C26         7.0080   -1.4560   -6.2410 c3        1 2LG      0.107300
     10 C28         6.3730   -2.0760   -5.0140 c3        1 2LG     -0.122100
     11 C1          2.1260   -0.8170    0.0840 cd        1 2LG     -0.068300
     12 C2          2.2160   -0.0200    1.2390 cc        1 2LG     -0.177400
     13 C3          3.3820   -0.9720   -0.5390 cd        1 2LG     -0.051000
     14 S5          3.7390    0.4940    1.5370 ss        1 2LG      0.248200
     15 C9         -0.0800   -0.6630    0.9800 c3        1 2LG     -0.077400
     16 N10         5.7470   -0.2760   -0.1260 n         1 2LG     -0.416100
     17 N11         3.8860   -2.2560   -2.7100 n1        1 2LG     -0.409800
     18 C12         6.2870    0.6980   -0.9620 c         1 2LG      0.658700
     19 O14         5.7680    1.8080   -1.1520 o         1 2LG     -0.524100
     20 C16         8.7340   -0.0690   -0.9480 ca        1 2LG      0.143400
     21 C18         9.9130   -0.3400   -1.6710 ca        1 2LG     -0.154000
     22 CL19        8.7470   -0.2400    0.7230 cl        1 2LG      0.020600
     23 S20         8.8790    0.5590   -5.3370 sy        1 2LG      1.473200
     24 N22         8.4620   -1.1570   -6.1460 n4        1 2LG     -0.610300
     25 O23        10.1690    0.7020   -5.8130 o         1 2LG     -0.567300
     26 O24         7.8460    1.3300   -5.8260 o         1 2LG     -0.567300
     27 C25         9.2620   -2.2550   -5.5560 c3        1 2LG      0.107300
     28 C27         9.2750   -3.5390   -6.3620 c3        1 2LG     -0.122100
     29 H41         0.3700   -0.9120   -1.1650 hc        1 2LG      0.066700
     30 H42         0.6730   -2.3910   -0.1660 hc        1 2LG      0.066700
     31 H61         0.5820    1.2190    1.9180 hc        1 2LG      0.064700
     32 H62         0.8810   -0.2580    2.9220 hc        1 2LG      0.064700
     33 H15         6.7320    0.9180   -3.5360 ha        1 2LG      0.190000
     34 H21        10.8780   -0.3850   -3.5960 ha        1 2LG      0.171000
     35 H261        6.8470   -2.1570   -7.1120 hx        1 2LG      0.096200
     36 H262        6.4920   -0.4790   -6.4860 hx        1 2LG      0.096200
     37 H281        6.7490   -3.1130   -4.8350 hc        1 2LG      0.072367
     38 H282        6.5470   -1.4640   -4.0960 hc        1 2LG      0.072367
     39 H283        5.2670   -2.1360   -5.1880 hc        1 2LG      0.072367
     40 H91        -0.8780    0.0060    0.5760 hc        1 2LG      0.057700
     41 H92        -0.5750   -1.4700    1.5740 hc        1 2LG      0.057700
     42 H10         6.1730   -1.1790   -0.1440 hn        1 2LG      0.316500
     43 H18        10.8230   -0.6620   -1.1330 ha        1 2LG      0.187000
     44 H251       10.3230   -1.8700   -5.4660 hx        1 2LG      0.096200
     45 H252        8.8650   -2.4620   -4.5210 hx        1 2LG      0.096200
     46 H271        9.6740   -3.3720   -7.3920 hc        1 2LG      0.072367
     47 H272        8.2520   -3.9810   -6.4380 hc        1 2LG      0.072367
     48 H273        9.9400   -4.2750   -5.8440 hc        1 2LG      0.072367
     49 H221        8.7850   -1.0580   -7.1140 hn        1 2LG      0.439800
@<TRIPOS>BOND
     1    1   11 1   
     2    1   15 1   
     3    1   29 1   
     4    1   30 1   
     5    2   12 1   
     6    2   15 1   
     7    2   31 1   
     8    2   32 1   
     9    3   13 2   
    10    3   14 1   
    11    3   16 1   
    12    4   13 1   
    13    4   17 3   
    14    5    6 ar  
    15    5   18 1   
    16    5   20 ar  
    17    6    7 ar  
    18    6   33 1   
    19    7    8 ar  
    20    7   23 1   
    21    8   21 ar  
    22    8   34 1   
    23    9   10 1   
    24    9   24 1   
    25    9   35 1   
    26    9   36 1   
    27   10   37 1   
    28   10   38 1   
    29   10   39 1   
    30   11   12 2   
    31   11   13 1   
    32   12   14 1   
    33   15   40 1   
    34   15   41 1   
    35   16   18 1   
    36   16   42 1   
    37   18   19 2   
    38   20   21 ar  
    39   20   22 1   
    40   21   43 1   
    41   23   24 1   
    42   23   25 2   
    43   23   26 2   
    44   24   27 1   
    45   24   49 1   
    46   27   28 1   
    47   27   44 1   
    48   27   45 1   
    49   28   46 1   
    50   28   47 1   
    51   28   48 1   
@<TRIPOS>SUBSTRUCTURE
     1 2LG         1 TEMP              0 ****  ****    0 ROOT
