@<TRIPOS>MOLECULE
molecule
   48    50     1     0     0
SMALL
bcc


@<TRIPOS>ATOM
      1 C4           0.0000     0.0000     0.0000 c3         1 2LG      -0.060100
      2 C6           0.8120    -0.0040     2.2530 c3         1 2LG       0.044900
      3 C7           3.8990     0.0020    -0.5620 cc         1 2LG       0.134500
      4 C8           2.2810     0.0120    -2.4070 ch         1 2LG       0.261800
      5 C13          7.5050     0.0050    -1.4960 ca         1 2LG      -0.171600
      6 C15          7.4410     0.0100    -2.8910 ca         1 2LG      -0.062000
      7 C17          8.6050     0.0040    -3.6320 ca         1 2LG      -0.043500
      8 C21          9.8340     0.0060    -2.9960 ca         1 2LG      -0.037000
      9 C26          7.0280    -2.6880    -5.8170 c3         1 2LG       0.251800
     10 C28          7.4270    -3.6400    -4.8840 c3         1 2LG      -0.128600
     11 C1           1.5300     0.0000     0.0000 cd         1 2LG      -0.084300
     12 C2           1.9570     0.0000     1.2760 cc         1 2LG      -0.106400
     13 C3           2.5890     0.0060    -1.0080 cd         1 2LG      -0.137000
     14 S5           3.7280     0.0030     1.1600 ss         1 2LG       0.015200
     15 C9          -0.4110    -0.4440     1.4180 c3         1 2LG      -0.124400
     16 N10          5.0640     0.0030    -1.3130 ns         1 2LG      -0.419100
     17 N11          2.0570     0.0130    -3.5210 n1         1 2LG      -0.391800
     18 C12          6.2630     0.0040    -0.6960 c          1 2LG       0.668700
     19 O14          6.3220     0.0050     0.5190 o          1 2LG      -0.563100
     20 C16          8.7490     0.0070    -0.8600 ca         1 2LG       0.081400
     21 C18          9.9070     0.0070    -1.6150 ca         1 2LG      -0.135000
     22 Cl19         8.5250     0.1370     0.8460 cl         1 2LG      -0.036400
     23 S20          8.3030    -0.2600    -5.7030 sy         1 2LG       0.910200
     24 N22          8.2520    -1.6140    -6.1350 n3         1 2LG      -0.869500
     25 O23          9.4670     0.5120    -6.2330 o          1 2LG      -0.476800
     26 O24          6.8620     0.7450    -5.8780 o          1 2LG      -0.476800
     27 C25          9.2690    -2.3740    -6.8110 c3         1 2LG       0.251800
     28 C27          8.6940    -3.4480    -7.6020 c3         1 2LG      -0.128600
     29 H41         -0.3430     0.7420    -0.7110 hc         1 2LG       0.073200
     30 H42         -0.3430    -1.0100    -0.1900 hc         1 2LG       0.073200
     31 H61          0.9420    -0.8390     2.9310 hc         1 2LG       0.059700
     32 H62          0.7630     0.9690     2.7280 hc         1 2LG       0.059700
     33 H15          6.4800    -0.0150    -3.3890 ha         1 2LG       0.138000
     34 H21         10.7460     0.0020    -3.5810 ha         1 2LG       0.147000
     35 H261         6.1720    -2.1480    -5.4300 h1         1 2LG       0.071950
     36 H262         6.7470    -3.1880    -6.7360 h1         1 2LG       0.071950
     37 H281         8.4770    -3.5030    -4.6550 hc         1 2LG       0.059367
     38 H282         7.2720    -4.6320    -5.2910 hc         1 2LG       0.059367
     39 H283         6.8420    -3.5260    -3.9790 hc         1 2LG       0.059367
     40 H91         -1.1090    -1.2680     1.3370 hc         1 2LG       0.071700
     41 H92         -0.7740     0.4200     1.9620 hc         1 2LG       0.071700
     42 H10          5.0150     0.0180    -2.3120 hn         1 2LG       0.344500
     43 H18         10.8720     0.0090    -1.1230 ha         1 2LG       0.150000
     44 H251         9.9420    -2.7970    -6.0750 h1         1 2LG       0.071950
     45 H252         9.8270    -1.7140    -7.4640 h1         1 2LG       0.071950
     46 H271         9.4120    -3.7750    -8.3440 hc         1 2LG       0.059367
     47 H272         8.4420    -4.2790    -6.9540 hc         1 2LG       0.059367
     48 H273         7.7990    -3.0930    -8.0980 hc         1 2LG       0.059367
@<TRIPOS>BOND
     1     1    11 1
     2     1    15 1
     3     1    29 1
     4     1    30 1
     5     2    12 1
     6     2    15 1
     7     2    31 1
     8     2    32 1
     9     3    13 2
    10     3    14 1
    11     3    16 1
    12     4    13 1
    13     4    17 3
    14     5     6 ar
    15     5    18 1
    16     5    20 ar
    17     6     7 ar
    18     6    33 1
    19     7     8 ar
    20     7    23 1
    21     8    21 ar
    22     8    34 1
    23     9    10 1
    24     9    24 1
    25     9    35 1
    26     9    36 1
    27    10    37 1
    28    10    38 1
    29    10    39 1
    30    11    12 2
    31    11    13 1
    32    12    14 1
    33    15    40 1
    34    15    41 1
    35    16    18 1
    36    16    42 1
    37    18    19 2
    38    20    21 ar
    39    20    22 1
    40    21    43 1
    41    23    24 1
    42    23    25 2
    43    23    26 2
    44    24    27 1
    45    27    28 1
    46    27    44 1
    47    27    45 1
    48    28    46 1
    49    28    47 1
    50    28    48 1
@<TRIPOS>SUBSTRUCTURE
     1 2LG         1 TEMP              0 ****  ****    0 ROOT
