@<TRIPOS>MOLECULE
2LI
   73    76     1     0     0
SMALL
bcc


@<TRIPOS>ATOM
      1 C4           0.0000     0.0000     0.0000 cc         1 2LI      -0.323600
      2 C5           1.5080     0.0000     0.0000 c3         1 2LI       0.098900
      3 C6           1.9920     0.0000     1.4560 c3         1 2LI       0.164500
      4 C7           3.4780    -0.2480     1.4910 ca         1 2LI      -0.116300
      5 C8           4.3560     0.8190     1.5190 ca         1 2LI      -0.123000
      6 C10          6.2030    -0.7040     1.5570 ca         1 2LI      -0.115000
      7 C15          7.3830    -3.1550     1.5730 c3         1 2LI       0.004233
      8 C20          2.2790     2.7330     5.5320 c3         1 2LI       0.022700
      9 C26          2.0120     4.1200     6.1220 c3         1 2LI      -0.017100
     10 C28          3.6640     4.4600     7.9710 ca         1 2LI      -0.152500
     11 C29          4.0010     4.4690     9.3130 ca         1 2LI       0.135900
     12 C30          3.0530     4.1420    10.2670 ca         1 2LI      -0.175000
     13 C31          1.7680     3.8060     9.8770 ca         1 2LI       0.135900
     14 F33          0.8420     3.4870    10.8070 f          1 2LI      -0.124400
     15 C32          1.4330     3.7970     8.5350 ca         1 2LI      -0.152500
     16 C27          2.3810     4.1240     7.5820 ca         1 2LI      -0.032300
     17 N21          3.7170     2.4560     5.5700 ns         1 2LI      -0.186900
     18 C19          1.7900     2.6930     4.0820 c3         1 2LI       0.158100
     19 O24          0.3870     2.9630     4.0450 oh         1 2LI      -0.577800
     20 N17          1.6980     1.3020     2.0690 n7         1 2LI      -0.568200
     21 C35         -0.8560     0.3180    -1.0520 cc         1 2LI       0.409200
     22 C3          -0.7620    -0.3190     1.0780 cd         1 2LI      -0.235600
     23 N37         -2.0510    -0.2050     0.7190 na         1 2LI       0.466400
     24 N36         -2.0890     0.1960    -0.6250 nd         1 2LI      -0.680800
     25 C2          -0.2020    -0.7260     2.4180 c3         1 2LI       0.067900
     26 C1           1.2710    -1.1050     2.2340 c3         1 2LI      -0.024400
     27 C9           5.7190     0.5910     1.5510 ca         1 2LI      -0.093000
     28 C11          5.3250    -1.7700     1.5340 ca         1 2LI      -0.070300
     29 C12          3.9620    -1.5430     1.5020 ca         1 2LI      -0.098000
     30 C16          5.3830    -3.9080     0.2790 c3         1 2LI       0.004233
     31 C14          5.3310    -3.9170     2.7770 c3         1 2LI       0.004233
     32 H5           1.8710     0.8870    -0.5040 hc         1 2LI       0.020700
     33 H5A          1.8710    -0.8870    -0.5040 hc         1 2LI       0.020700
     34 H8           3.9770     1.8340     1.5140 ha         1 2LI       0.116000
     35 H10          7.2720    -0.8830     1.5820 ha         1 2LI       0.120000
     36 H15          7.7160    -2.6440     2.4680 hc         1 2LI       0.007922
     37 H15A         7.7070    -4.1880     1.6050 hc         1 2LI       0.007922
     38 H15B         7.8060    -2.6700     0.7010 hc         1 2LI       0.007922
     39 H20          1.7510     1.9860     6.1120 h1         1 2LI       0.042700
     40 H26          2.6090     4.8570     5.5970 hc         1 2LI       0.057200
     41 H26A         0.9620     4.3620     6.0130 hc         1 2LI       0.057200
     42 H28          4.3930     4.7610     7.2280 ha         1 2LI       0.131000
     43 H30          3.3160     4.1490    11.3180 ha         1 2LI       0.136000
     44 H32          0.4270     3.5340     8.2300 ha         1 2LI       0.131000
     45 HN21         4.0620     1.6780     6.0980 hn         1 2LI       0.179500
     46 H23          6.2150     1.9210     5.1550 hc         1 2LI       0.025367
     47 H23A         6.4780     3.2240     3.9870 hc         1 2LI       0.025367
     48 H23B         6.5380     3.5650     5.7220 hc         1 2LI       0.025367
     49 H19          2.3170     3.4400     3.5020 h1         1 2LI       0.047700
     50 HO24         0.2220     3.6850     3.4610 ho         1 2LI       0.398000
     51 H18          3.1080     1.0650     3.6020 h1         1 2LI       0.028200
     52 H18A         1.4620     0.5700     4.0190 h1         1 2LI       0.028200
     53 HN17         2.2110     2.0180     1.5930 hn         1 2LI       0.265800
     54 H35         -0.5550     0.6130    -2.0500 h4         1 2LI       0.001100
     55 H2          -0.7520    -1.5780     2.7970 hc         1 2LI       0.028700
     56 H2A         -0.2810     0.1030     3.1110 hc         1 2LI       0.028700
     57 H1           1.3370    -2.0350     1.6830 hc         1 2LI       0.024700
     58 H1A          1.7360    -1.2210     3.2060 hc         1 2LI       0.024700
     59 H9           6.4080     1.4270     1.5700 ha         1 2LI       0.104000
     60 H12          3.2730    -2.3800     1.4840 ha         1 2LI       0.122000
     61 H16          5.5320    -3.2680    -0.5830 hc         1 2LI       0.007922
     62 H16A         4.3380    -4.1860     0.3460 hc         1 2LI       0.007922
     63 H16B         5.9880    -4.8000     0.1740 hc         1 2LI       0.007922
     64 H14          5.4710    -3.2960     3.6530 hc         1 2LI       0.007922
     65 H14A         4.2710    -4.0580     2.6010 hc         1 2LI       0.007922
     66 H14B         5.8010    -4.8800     2.9370 hc         1 2LI       0.007922
     67 HN37        -2.8440    -0.3760     1.3050 hn         1 2LI       0.142700
     68 C13          5.8540    -3.1820     1.5410 c3         1 2LI      -0.013700
     69 C18          2.0580     1.3060     3.4940 c3         1 2LI       0.086800
     70 C22          4.5770     3.2590     4.9140 c          1 2LI       0.574100
     71 F34          5.2550     4.7980     9.6920 f          1 2LI      -0.124400
     72 C23          6.0560     2.9730     4.9530 c3         1 2LI      -0.070100
     73 O25          4.1600     4.2130     4.2910 o          1 2LI      -0.661100
@<TRIPOS>BOND
     1     1     2 1   
     2     1    21 1   
     3     1    22 2   
     4     2     3 1   
     5     2    32 1   
     6     2    33 1   
     7     3     4 1   
     8     3    20 1   
     9     3    26 1   
    10     4     5 ar  
    11     4    29 ar  
    12     5    27 ar  
    13     5    34 1   
    14     6    27 ar  
    15     6    28 ar  
    16     6    35 1   
    17     7    36 1   
    18     7    37 1   
    19     7    38 1   
    20     7    68 1   
    21     8     9 1   
    22     8    17 1   
    23     8    18 1   
    24     8    39 1   
    25     9    16 1   
    26     9    40 1   
    27     9    41 1   
    28    10    11 ar  
    29    10    16 ar  
    30    10    42 1   
    31    11    12 ar  
    32    11    71 1   
    33    12    13 ar  
    34    12    43 1   
    35    13    14 1   
    36    13    15 ar  
    37    15    16 ar  
    38    15    44 1   
    39    17    45 1   
    40    17    70 1   
    41    18    19 1   
    42    18    49 1   
    43    18    69 1   
    44    19    50 1   
    45    20    53 1   
    46    20    69 1   
    47    21    24 2   
    48    21    54 1   
    49    22    23 1   
    50    22    25 1   
    51    23    24 1   
    52    23    67 1   
    53    25    26 1   
    54    25    55 1   
    55    25    56 1   
    56    26    57 1   
    57    26    58 1   
    58    27    59 1   
    59    28    29 ar  
    60    28    68 1   
    61    29    60 1   
    62    30    61 1   
    63    30    62 1   
    64    30    63 1   
    65    30    68 1   
    66    31    64 1   
    67    31    65 1   
    68    31    66 1   
    69    31    68 1   
    70    46    72 1   
    71    47    72 1   
    72    48    72 1   
    73    51    69 1   
    74    52    69 1   
    75    70    72 1   
    76    70    73 2   
@<TRIPOS>SUBSTRUCTURE
     1 2LI         1 TEMP              0 ****  ****    0 ROOT
