@<TRIPOS>MOLECULE
2LJ
   42    43     1     0     0
SMALL
bcc


@<TRIPOS>ATOM
      1 C4           0.0000     0.0000     0.0000 c2         1 2LJ       0.274000
      2 C6          -2.7250     0.8440     0.5310 c2         1 2LJ      -0.360000
      3 C7          -4.2300     0.7740     0.4760 DU         1 2LJ      -0.207000
      4 C8          -4.8180     2.1370     0.8450 c3         1 2LJ      -0.129000
      5 N1           1.4120     0.0010     2.3450 ns         1 2LJ       0.153000
      6 N3           1.3470     0.0000     0.0000 ns         1 2LJ       0.093000
      7 C4A         -0.6960     0.0060     1.2340 c2         1 2LJ      -0.309000
      8 O4          -0.6150     0.0000    -1.0520 o          1 2LJ      -0.360000
      9 C2           2.0360     0.0000     1.1550 c2         1 2LJ       0.176000
     10 O2           3.2520    -0.0050     1.1220 o          1 2LJ      -0.436000
     11 C8A          0.0420     0.0060     2.4140 c2         1 2LJ      -0.073000
     12 N8          -0.5920     0.0060     3.6280 nu         1 2LJ       0.080000
     13 C1'          0.1930     0.0000     4.8640 c3         1 2LJ      -0.124000
     14 C2'         -0.7500     0.0020     6.0690 c3         1 2LJ       0.061000
     15 O2'         -1.5700     1.1730     6.0300 oh         1 2LJ      -0.282000
     16 C3'          0.0700    -0.0040     7.3590 c3         1 2LJ       0.062000
     17 O3'          0.8890    -1.1730     7.3980 oh         1 2LJ      -0.310000
     18 C4'         -0.8740    -0.0020     8.5640 c3         1 2LJ       0.058000
     19 O4'         -1.6930     1.1680     8.5250 oh         1 2LJ      -0.294000
     20 C5'         -0.0540    -0.0070     9.8550 c3         1 2LJ       0.040000
     21 O5'         -0.9320    -0.1230    10.9770 oh         1 2LJ      -0.323000
     22 H1          -3.3500     1.2990     1.2900 DU         1 2LJ       0.326000
     23 H2          -4.5820     0.0270     1.1780 ha         1 2LJ       0.082000
     24 H3          -4.5420     0.5040    -0.5250 ha         1 2LJ       0.082000
     25 H4          -4.1740     2.9220     0.4660 hc         1 2LJ       0.052000
     26 H5          -5.8040     2.2350     0.4070 hc         1 2LJ       0.052000
     27 H6          -4.8920     2.2190     1.9230 hc         1 2LJ       0.052000
     28 H7           1.8410    -0.0020    -0.8700 hn         1 2LJ       0.120000
     29 H9          -1.5920    -0.0180     3.6710 hn         1 2LJ       0.108000
     30 H10          0.8140    -0.8870     4.8930 h1         1 2LJ       0.070000
     31 H11          0.8220     0.8820     4.8970 h1         1 2LJ       0.070000
     32 H12         -1.3780    -0.8800     6.0360 h1         1 2LJ       0.056000
     33 H13         -2.4440     0.9360     5.7670 ho         1 2LJ       0.188000
     34 H14          0.6980     0.8780     7.3920 h1         1 2LJ       0.064000
     35 H15          1.7960    -0.9200     7.4570 ho         1 2LJ       0.197000
     36 H16         -1.5020    -0.8840     8.5320 h1         1 2LJ       0.056000
     37 H17         -2.5120     0.9930     8.9580 ho         1 2LJ       0.197000
     38 H18          0.6310    -0.8460     9.8450 h1         1 2LJ       0.037500
     39 H19          0.5070     0.9160     9.9300 h1         1 2LJ       0.037500
     40 H20         -0.4250    -0.2720    11.7580 ho         1 2LJ       0.195000
     41 H8           1.9510     0.0000     3.1890 hn         1 2LJ       0.106000
     42 N5          -2.0660     0.0100     1.2640 n2         1 2LJ       0.058000
@<TRIPOS>BOND
     1     1     6 1   
     2     1     7 1   
     3     1     8 1   
     4     2     3 1   
     5     2    22 1   
     6     2    42 1   
     7     3     4 1   
     8     3    22 1   
     9     3    23 1   
    10     3    24 1   
    11     4    25 1   
    12     4    26 1   
    13     4    27 1   
    14     5     9 1   
    15     5    11 1   
    16     5    41 1   
    17     6     9 1   
    18     6    28 1   
    19     7    11 1   
    20     7    42 1   
    21     9    10 1   
    22    11    12 1   
    23    12    13 1   
    24    12    29 1   
    25    13    14 1   
    26    13    30 1   
    27    13    31 1   
    28    14    15 1   
    29    14    16 1   
    30    14    32 1   
    31    15    33 1   
    32    16    17 1   
    33    16    18 1   
    34    16    34 1   
    35    17    35 1   
    36    18    19 1   
    37    18    20 1   
    38    18    36 1   
    39    19    37 1   
    40    20    21 1   
    41    20    38 1   
    42    20    39 1   
    43    21    40 1   
@<TRIPOS>SUBSTRUCTURE
     1 2LJ         1 TEMP              0 ****  ****    0 ROOT
