@<TRIPOS>MOLECULE
molecule
   42    42     1     0     0
SMALL
bcc


@<TRIPOS>ATOM
      1 C4           0.0000     0.0000     0.0000 c          1 2LJ       0.711700
      2 C6          -2.7250     0.8440     0.5310 c2         1 2LJ       0.446200
      3 C7          -4.2300     0.7740     0.4760 c3         1 2LJ      -0.128700
      4 C8          -4.8180     2.1370     0.8450 c3         1 2LJ      -0.090100
      5 N1           1.4120     0.0010     2.3450 ns         1 2LJ      -0.466100
      6 N3           1.3470     0.0000     0.0000 ns         1 2LJ      -0.561500
      7 C4A         -0.6960     0.0060     1.2340 cc         1 2LJ      -0.177600
      8 O4          -0.6150     0.0000    -1.0520 o          1 2LJ      -0.638500
      9 C2           2.0360     0.0000     1.1550 c          1 2LJ       0.819500
     10 O2           3.2520    -0.0050     1.1220 o          1 2LJ      -0.656500
     11 C8A          0.0420     0.0060     2.4140 cd         1 2LJ       0.344600
     12 N8          -0.5920     0.0060     3.6280 nu         1 2LJ      -0.784000
     13 C1'          0.1930     0.0000     4.8640 c3         1 2LJ       0.190800
     14 C2'         -0.7500     0.0020     6.0690 c3         1 2LJ       0.132100
     15 O2'         -1.5700     1.1730     6.0300 oh         1 2LJ      -0.573800
     16 C3'          0.0700    -0.0040     7.3590 c3         1 2LJ       0.142100
     17 O3'          0.8890    -1.1730     7.3980 oh         1 2LJ      -0.602800
     18 C4'         -0.8740    -0.0020     8.5640 c3         1 2LJ       0.143100
     19 O4'         -1.6930     1.1680     8.5250 oh         1 2LJ      -0.583800
     20 C5'         -0.0540    -0.0070     9.8550 c3         1 2LJ       0.113400
     21 O5'         -0.9320    -0.1230    10.9770 oh         1 2LJ      -0.612800
     22 H1          -2.1930     1.5400    -0.1070 h4         1 2LJ      -0.011200
     23 H2          -4.5820     0.0270     1.1780 hc         1 2LJ       0.060200
     24 H3          -4.5420     0.5040    -0.5250 hc         1 2LJ       0.060200
     25 H4          -5.8890     2.0450     0.9750 hc         1 2LJ       0.036033
     26 H5          -4.3710     2.4860     1.7680 hc         1 2LJ       0.036033
     27 H6          -4.6100     2.8460     0.0530 hc         1 2LJ       0.036033
     28 H7           1.8410    -0.0020    -0.8700 hn         1 2LJ       0.363500
     29 H9          -1.5920     0.0190     3.6710 hn         1 2LJ       0.481800
     30 H10          0.8140    -0.8870     4.8930 h1         1 2LJ       0.054200
     31 H11          0.8220     0.8820     4.8970 h1         1 2LJ       0.054200
     32 H12         -1.3780    -0.8800     6.0360 h1         1 2LJ       0.054700
     33 H13         -2.4410     0.9370     5.7570 ho         1 2LJ       0.407000
     34 H14          0.6980     0.8780     7.3920 h1         1 2LJ       0.061700
     35 H15          1.7970    -0.9200     7.4430 ho         1 2LJ       0.412000
     36 H16         -1.5020    -0.8840     8.5320 h1         1 2LJ       0.051700
     37 H17         -2.5220     0.9860     8.9360 ho         1 2LJ       0.414000
     38 H18          0.5070     0.9160     9.9300 h1         1 2LJ       0.034200
     39 H19          0.6310    -0.8460     9.8450 h1         1 2LJ       0.034200
     40 H20         -0.4370    -0.3790    11.7380 ho         1 2LJ       0.408000
     41 H8           1.9510     0.0000     3.1890 hn         1 2LJ       0.356500
     42 N5          -2.0660     0.0100     1.2640 ne         1 2LJ      -0.576300
@<TRIPOS>BOND
     1    21    20 1   
     2    20    18 1   
     3    19    18 1   
     4    18    16 1   
     5    15    14 1   
     6    16    14 1   
     7    16    17 1   
     8    14    13 1   
     9    13    12 1   
    10    12    11 1   
    11    11     5 1   
    12    11     7 2   
    13     5     9 1   
    14    42     7 1   
    15    42     2 2   
    16     7     1 1   
    17     4     3 1   
    18     9    10 2   
    19     9     6 1   
    20     3     2 1   
    21     6     1 1   
    22     1     8 2   
    23     2    22 1   
    24     3    23 1   
    25     3    24 1   
    26     4    25 1   
    27     4    26 1   
    28     4    27 1   
    29     6    28 1   
    30    12    29 1   
    31    13    30 1   
    32    13    31 1   
    33    14    32 1   
    34    15    33 1   
    35    16    34 1   
    36    17    35 1   
    37    18    36 1   
    38    19    37 1   
    39    20    38 1   
    40    20    39 1   
    41    21    40 1   
    42     5    41 1   
@<TRIPOS>SUBSTRUCTURE
     1 2LJ         1 TEMP              0 ****  ****    0 ROOT
