@<TRIPOS>MOLECULE
2LK
   40    43     1     0     0
SMALL
bcc


@<TRIPOS>ATOM
      1 CAU        -0.1620    0.4800    0.0660 c3        1 2LK     -0.140400
      2 CAN         1.2770    0.2410   -0.0190 cc        1 2LK      0.273000
      3 OAM         1.9880    0.2220    1.2030 os        1 2LK     -0.119100
      4 NAL         3.2680    0.0010    0.9820 nc        1 2LK     -0.365300
      5 CAK         3.4770   -0.1400   -0.3440 cd        1 2LK      0.336600
      6 CAV         4.7790   -0.3950   -0.9870 c3        1 2LK     -0.137400
      7 CAJ         2.1880    0.0110   -1.0400 cd        1 2LK     -0.267600
      8 CAD         1.9450   -0.0590   -2.4600 ca        1 2LK     -0.029000
      9 CAC         2.6200   -0.9980   -3.2440 ca        1 2LK     -0.055000
     10 CAE         1.0080    0.8280   -3.0410 ca        1 2LK     -0.105000
     11 CAF         0.7230    0.8170   -4.3970 ca        1 2LK     -0.138000
     12 CAA         1.3970   -0.1130   -5.1950 ca        1 2LK     -0.070200
     13 CAB         2.3610   -1.0350   -4.6170 ca        1 2LK      0.065400
     14 NAI         2.8870   -1.8610   -5.6360 nc        1 2LK     -0.561100
     15 CAH         2.2820   -1.4640   -6.7620 cd        1 2LK      0.430700
     16 NAG         1.3400   -0.4260   -6.5630 na        1 2LK     -0.174300
     17 CAX         0.6490    0.3020   -7.5830 c3        1 2LK      0.095600
     18 CAQ         1.4230    1.4210   -8.2230 ca        1 2LK     -0.125300
     19 CAP         1.5500    1.4680   -9.6150 ca        1 2LK     -0.105500
     20 CAO         2.2260    2.5230  -10.2250 ca        1 2LK     -0.123500
     21 CAT         2.7840    3.5330   -9.4350 ca        1 2LK      0.025400
     22 CL          3.6120    4.8190  -10.1740 cl        1 2LK     -0.086400
     23 CAS         2.6660    3.4920   -8.0420 ca        1 2LK     -0.123500
     24 CAR         1.9840    2.4360   -7.4420 ca        1 2LK     -0.105500
     25 H1         -0.3660    1.5810    0.0870 hc        1 2LK      0.066033
     26 H2         -0.5830    0.0250    0.9970 hc        1 2LK      0.066033
     27 H3         -0.6730    0.0360   -0.8260 hc        1 2LK      0.066033
     28 H4          4.9570   -1.4980   -1.0570 hc        1 2LK      0.060700
     29 H5          5.6190    0.0610   -0.4060 hc        1 2LK      0.060700
     30 H6          4.7780    0.0350   -2.0200 hc        1 2LK      0.060700
     31 H7          3.3370   -1.7010   -2.7930 ha        1 2LK      0.155000
     32 H8          0.4950    1.5520   -2.3880 ha        1 2LK      0.135000
     33 H9         -0.0080    1.5140   -4.8290 ha        1 2LK      0.137000
     34 H10         2.4550   -1.8920   -7.7580 h5        1 2LK      0.070800
     35 H11         0.3350   -0.4380   -8.3770 h1        1 2LK      0.069700
     36 H12        -0.2860    0.7400   -7.1220 h1        1 2LK      0.069700
     37 H13         1.1140    0.6730  -10.2390 ha        1 2LK      0.142500
     38 H14         2.3210    2.5560  -11.3210 ha        1 2LK      0.152000
     39 H15         3.1090    4.2860   -7.4210 ha        1 2LK      0.152000
     40 H16         1.8890    2.3980   -6.3440 ha        1 2LK      0.142500
@<TRIPOS>BOND
     1    1    2 1   
     2    1   25 1   
     3    1   26 1   
     4    1   27 1   
     5    2    3 1   
     6    2    7 2   
     7    3    4 1   
     8    4    5 2   
     9    5    6 1   
    10    5    7 1   
    11    6   28 1   
    12    6   29 1   
    13    6   30 1   
    14    7    8 1   
    15    8    9 ar  
    16    8   10 ar  
    17    9   13 ar  
    18    9   31 1   
    19   10   11 ar  
    20   10   32 1   
    21   11   12 ar  
    22   11   33 1   
    23   12   13 ar  
    24   12   16 1   
    25   13   14 1   
    26   14   15 2   
    27   15   16 1   
    28   15   34 1   
    29   16   17 1   
    30   17   18 1   
    31   17   35 1   
    32   17   36 1   
    33   18   19 ar  
    34   18   24 ar  
    35   19   20 ar  
    36   19   37 1   
    37   20   21 ar  
    38   20   38 1   
    39   21   22 1   
    40   21   23 ar  
    41   23   24 ar  
    42   23   39 1   
    43   24   40 1   
@<TRIPOS>SUBSTRUCTURE
     1 2LK         1 TEMP              0 ****  ****    0 ROOT
