@<TRIPOS>MOLECULE
2LL
   62    66     1     0     0
SMALL
bcc


@<TRIPOS>ATOM
      1 C25         0.2140    1.0450    0.1820 c3        1 2LL     -0.139400
      2 C24         1.5320    0.4420   -0.0050 cc        1 2LL      0.271000
      3 O1          2.3040    0.2350    1.1610 os        1 2LL     -0.120100
      4 N3          3.4630   -0.3090    0.8490 nc        1 2LL     -0.366300
      5 C1          3.5270   -0.4930   -0.4860 cd        1 2LL      0.335600
      6 C           4.6680   -1.0720   -1.2210 c3        1 2LL     -0.137400
      7 C2          2.2720   -0.0120   -1.0870 cd        1 2LL     -0.264600
      8 C3          1.9120   -0.0120   -2.4840 ca        1 2LL     -0.030000
      9 C8          2.2610   -1.0880   -3.3010 ca        1 2LL     -0.058000
     10 C7          1.8930   -1.0530   -4.6510 ca        1 2LL      0.067400
     11 N           2.1120   -1.9790   -5.6890 nc        1 2LL     -0.566100
     12 C9          1.5460   -1.4400   -6.7890 cd        1 2LL      0.422800
     13 C10         1.5340   -2.0850   -8.1380 c3        1 2LL     -0.090700
     14 C11         0.6510   -3.3230   -8.1310 c3        1 2LL     -0.035100
     15 C12         0.5260   -3.8970   -9.4980 ca        1 2LL     -0.086300
     16 C17        -0.3320   -3.3050  -10.4340 ca        1 2LL     -0.126500
     17 C16        -0.4620   -3.8460  -11.7110 ca        1 2LL     -0.127000
     18 C15         0.2650   -4.9830  -12.0660 ca        1 2LL     -0.129000
     19 C14         1.1200   -5.5780  -11.1390 ca        1 2LL     -0.127000
     20 C13         1.2510   -5.0380   -9.8600 ca        1 2LL     -0.126500
     21 N1          0.9670   -0.1650   -6.5350 na        1 2LL     -0.168300
     22 C6          1.1610    0.0890   -5.1700 ca        1 2LL     -0.068200
     23 C5          0.8160    1.1610   -4.3380 ca        1 2LL     -0.132000
     24 C4          1.1960    1.0910   -3.0080 ca        1 2LL     -0.107000
     25 C18         0.2210    0.6500   -7.4440 c3        1 2LL      0.044300
     26 C19        -1.2100    0.1200   -7.7180 c3        1 2LL      0.144800
     27 N2         -1.9560    1.0220   -8.5820 n3        1 2LL     -0.729600
     28 C23        -3.3970    0.8900   -8.3960 c3        1 2LL      0.132300
     29 C22        -4.1960    1.7830   -9.3530 c3        1 2LL      0.125900
     30 O          -3.8090    1.5790  -10.7070 os        1 2LL     -0.412600
     31 C21        -2.4170    1.7950  -10.9030 c3        1 2LL      0.125900
     32 C20        -1.5730    0.9050   -9.9840 c3        1 2LL      0.132300
     33 H1          0.3040    2.1620    0.2010 hc        1 2LL      0.065700
     34 H2         -0.2380    0.7120    1.1500 hc        1 2LL      0.065700
     35 H3         -0.4600    0.7530   -0.6620 hc        1 2LL      0.065700
     36 H4          4.6990   -0.6520   -2.2570 hc        1 2LL      0.061033
     37 H5          5.6380   -0.8510   -0.7110 hc        1 2LL      0.061033
     38 H6          4.5500   -2.1840   -1.2870 hc        1 2LL      0.061033
     39 H7          2.8090   -1.9520   -2.8970 ha        1 2LL      0.153000
     40 H8          1.1660   -1.3660   -8.9190 hc        1 2LL      0.067700
     41 H9          2.5860   -2.3710   -8.4090 hc        1 2LL      0.067700
     42 H10         1.0850   -4.0830   -7.4260 hc        1 2LL      0.062200
     43 H11        -0.3690   -3.0550   -7.7440 hc        1 2LL      0.062200
     44 H12        -0.9070   -2.4090  -10.1530 ha        1 2LL      0.130500
     45 H13        -1.1390   -3.3770  -12.4400 ha        1 2LL      0.132500
     46 H14         0.1610   -5.4100  -13.0740 ha        1 2LL      0.133000
     47 H15         1.6930   -6.4750  -11.4150 ha        1 2LL      0.132500
     48 H16         1.9250   -5.5120   -9.1300 ha        1 2LL      0.130500
     49 H17         0.2640    2.0280   -4.7250 ha        1 2LL      0.138000
     50 H18         0.9390    1.9200   -2.3300 ha        1 2LL      0.135000
     51 H19         0.1540    1.6890   -7.0100 h1        1 2LL      0.068700
     52 H20         0.7920    0.7110   -8.4140 h1        1 2LL      0.068700
     53 H21        -1.1330   -0.9190   -8.1580 h1        1 2LL      0.046200
     54 H22        -1.7540    0.0340   -6.7350 h1        1 2LL      0.046200
     55 H24        -3.7370   -0.1770   -8.5370 h1        1 2LL      0.041700
     56 H25        -3.6380    1.1970   -7.3400 h1        1 2LL      0.041700
     57 H26        -5.2810    1.5010   -9.3270 h1        1 2LL      0.056200
     58 H27        -4.0700    2.8650   -9.0850 h1        1 2LL      0.056200
     59 H28        -2.1770    2.8780  -10.7360 h1        1 2LL      0.056200
     60 H29        -2.2390    1.5200  -11.9750 h1        1 2LL      0.056200
     61 H30        -1.6530   -0.1620  -10.3480 h1        1 2LL      0.041700
     62 H31        -0.4970    1.2210  -10.0750 h1        1 2LL      0.041700
@<TRIPOS>BOND
     1    1    2 1
     2    1   33 1
     3    1   34 1
     4    1   35 1
     5    2    3 1
     6    2    7 2
     7    3    4 1
     8    4    5 2
     9    5    6 1
    10    5    7 1
    11    6   36 1
    12    6   37 1
    13    6   38 1
    14    7    8 1
    15    8    9 ar
    16    8   24 ar
    17    9   10 ar
    18    9   39 1
    19   10   11 1
    20   10   22 ar
    21   11   12 2
    22   12   13 1
    23   12   21 1
    24   13   14 1
    25   13   40 1
    26   13   41 1
    27   14   15 1
    28   14   42 1
    29   14   43 1
    30   15   16 ar
    31   15   20 ar
    32   16   17 ar
    33   16   44 1
    34   17   18 ar
    35   17   45 1
    36   18   19 ar
    37   18   46 1
    38   19   20 ar
    39   19   47 1
    40   20   48 1
    41   21   22 1
    42   21   25 1
    43   22   23 ar
    44   23   24 ar
    45   23   49 1
    46   24   50 1
    47   25   26 1
    48   25   51 1
    49   25   52 1
    50   26   27 1
    51   26   53 1
    52   26   54 1
    53   27   28 1
    54   27   32 1
    55   28   29 1
    56   28   55 1
    57   28   56 1
    58   29   30 1
    59   29   57 1
    60   29   58 1
    61   30   31 1
    62   31   32 1
    63   31   59 1
    64   31   60 1
    65   32   61 1
    66   32   62 1
@<TRIPOS>SUBSTRUCTURE
     1 2LL         1 TEMP              0 ****  ****    0 ROOT
