@<TRIPOS>MOLECULE
2LM
   40    40     1     0     0
SMALL
bcc


@<TRIPOS>ATOM
      1 C            0.0000     0.0000     0.0000 c          1 2LM       0.895300
      2 N           -2.0210     0.0010     1.2850 n2         1 2LM      -0.513900
      3 O1           1.2140     0.0000     0.0000 o          1 2LM      -0.892300
      4 N1          -5.0600     3.6540     2.5960 nb         1 2LM      -0.616000
      5 C2          -5.5540     2.5820     2.0080 ca         1 2LM       0.266600
      6 C3          -4.8300     1.3980     1.9720 ca         1 2LM       0.002800
      7 O3          -5.3430     0.2950     1.3660 oh         1 2LM      -0.482100
      8 C4          -3.5720     1.3570     2.5660 ca         1 2LM      -0.095300
      9 C5          -3.0920     2.5070     3.1710 ca         1 2LM      -0.137600
     10 C6          -3.8720     3.6480     3.1680 ca         1 2LM       0.400200
     11 CA          -0.7400     0.0000     1.2840 ce         1 2LM       0.352300
     12 CB           0.0140     0.0000     2.5890 c3         1 2LM      -0.139700
     13 SD           1.0390    -1.4330     4.6810 ss         1 2LM      -0.359200
     14 CE           1.0750    -3.1900     5.1320 c3         1 2LM       0.077000
     15 CG           0.1310    -1.4330     3.1100 c3         1 2LM       0.111700
     16 C4A         -2.7530     0.0920     2.5510 c3         1 2LM       0.163100
     17 C5A         -1.7360     2.5130     3.8290 c3         1 2LM       0.302700
     18 OP1          0.9830     3.9380     4.4150 o          1 2LM      -0.753167
     19 OP2         -0.0530     3.1390     6.5740 o          1 2LM      -0.753167
     20 OP3         -0.2510     5.6450     5.8050 o          1 2LM      -0.753167
     21 OP4         -1.5340     3.7620     4.4920 os         1 2LM      -0.478200
     22 O2          -0.6730     0.0060    -1.1660 o          1 2LM      -0.892300
     23 HO3         -5.8510    -0.1980     1.9890 ho         1 2LM       0.364000
     24 H6          -3.5020     4.5500     3.6400 h4         1 2LM       0.032100
     25 HB           1.0040     0.4100     2.4350 hc         1 2LM       0.084700
     26 HBA         -0.5190     0.6050     3.3140 hc         1 2LM       0.084700
     27 HE           0.0620    -3.5440     5.2850 h1         1 2LM       0.010700
     28 HEA          1.6430    -3.3170     6.0460 h1         1 2LM       0.010700
     29 HEB          1.5400    -3.7580     4.3360 h1         1 2LM       0.010700
     30 HG          -0.8600    -1.8430     3.2660 h1         1 2LM       0.019700
     31 HGA          0.6620    -2.0380     2.3860 h1         1 2LM       0.019700
     32 H2A         -6.8460     2.3300     0.3360 hc         1 2LM      -0.010967
     33 H2A1        -7.2930     3.6570     1.4170 hc         1 2LM      -0.010967
     34 H2A2        -7.5930     1.9820     1.9010 hc         1 2LM      -0.010967
     35 H4A         -3.4090    -0.7640     2.6510 h1         1 2LM       0.015200
     36 H5A         -1.6810     1.7080     4.5510 h1         1 2LM       0.005700
     37 H5A1        -0.9690     2.3760     3.0760 h1         1 2LM       0.005700
     38 H4A1        -2.0500     0.1070     3.3750 h1         1 2LM       0.015200
     39 C2A         -6.9170     2.6420     1.3710 c3         1 2LM      -0.016400
     40 P           -0.1880     4.1170     5.3020 p5         1 2LM       0.664900
@<TRIPOS>BOND
     1     1     3 1   
     2     1    11 1   
     3     1    22 1   
     4     2    11 2   
     5     2    16 1   
     6     4     5 ar  
     7     4    10 ar  
     8     5     6 ar  
     9     5    39 1   
    10     6     7 1   
    11     6     8 ar  
    12     7    23 1   
    13     8     9 ar  
    14     8    16 1   
    15     9    10 ar  
    16     9    17 1   
    17    10    24 1   
    18    11    12 1   
    19    12    15 1   
    20    12    25 1   
    21    12    26 1   
    22    13    14 1   
    23    13    15 1   
    24    14    27 1   
    25    14    28 1   
    26    14    29 1   
    27    15    30 1   
    28    15    31 1   
    29    16    35 1   
    30    16    38 1   
    31    17    21 1   
    32    17    36 1   
    33    17    37 1   
    34    18    40 1   
    35    19    40 1   
    36    20    40 1   
    37    21    40 1   
    38    32    39 1   
    39    33    39 1   
    40    34    39 1   
@<TRIPOS>SUBSTRUCTURE
     1 2LM         1 TEMP              0 ****  ****    0 ROOT
