@<TRIPOS>MOLECULE
molecule
   40    40     1     0     0
SMALL
bcc


@<TRIPOS>ATOM
      1 C            0.0000     0.0000     0.0000 c          1 2LM       0.808300
      2 N           -2.0210     0.0010     1.2850 n2         1 2LM      -0.580900
      3 O1           1.2140     0.0000     0.0000 o          1 2LM      -0.835300
      4 N1          -5.0600     3.6540     2.5960 nb         1 2LM      -0.724000
      5 C2          -5.5540     2.5820     2.0080 ca         1 2LM       0.343600
      6 C3          -4.8300     1.3980     1.9720 ca         1 2LM      -0.020200
      7 O3          -5.3430     0.2950     1.3660 oh         1 2LM      -0.509100
      8 C4          -3.5720     1.3570     2.5660 ca         1 2LM      -0.066300
      9 C5          -3.0920     2.5070     3.1710 ca         1 2LM      -0.148600
     10 C6          -3.8720     3.6480     3.1680 ca         1 2LM       0.435200
     11 CA          -0.7400     0.0000     1.2840 ce         1 2LM       0.395300
     12 CB           0.0140     0.0000     2.5890 c3         1 2LM      -0.179700
     13 SD           1.0390    -1.4330     4.6810 ss         1 2LM      -0.287200
     14 CE           1.0750    -3.1900     5.1320 c3         1 2LM      -0.030000
     15 CG           0.1310    -1.4330     3.1100 c3         1 2LM       0.028700
     16 C4A         -2.7530     0.0920     2.5510 c3         1 2LM       0.132100
     17 C5A         -1.7360     2.5130     3.8290 c3         1 2LM       0.242700
     18 OP1          0.9830     3.9380     4.4150 o          1 2LM      -0.909500
     19 OP2         -0.0530     3.1390     6.5740 o          1 2LM      -0.909500
     20 OP3         -0.2510     5.6450     5.8050 o          1 2LM      -0.909500
     21 OP4         -1.5340     3.7620     4.4920 os         1 2LM      -0.585200
     22 O2          -0.6730     0.0060    -1.1660 o          1 2LM      -0.835300
     23 HO3         -5.8500    -0.1990     1.9890 ho         1 2LM       0.381000
     24 H6          -3.5020     4.5500     3.6400 h4         1 2LM       0.073100
     25 HB           1.0040     0.4100     2.4350 hc         1 2LM       0.098200
     26 HBA         -0.5190     0.6050     3.3140 hc         1 2LM       0.098200
     27 HE           1.5410    -3.7580     4.3370 h1         1 2LM       0.034700
     28 HEA          0.0620    -3.5450     5.2830 h1         1 2LM       0.034700
     29 HEB          1.6410    -3.3160     6.0470 h1         1 2LM       0.034700
     30 HG          -0.8600    -1.8430     3.2660 h1         1 2LM       0.042200
     31 HGA          0.6620    -2.0380     2.3860 h1         1 2LM       0.042200
     32 H2A         -7.2930     3.6570     1.4170 hc         1 2LM       0.026033
     33 H2A1        -7.5930     1.9820     1.9010 hc         1 2LM       0.026033
     34 H2A2        -6.8460     2.3300     0.3360 hc         1 2LM       0.026033
     35 H4A         -3.4090    -0.7640     2.6510 h1         1 2LM       0.038700
     36 H5A         -1.6810     1.7080     4.5510 h1         1 2LM       0.045200
     37 H5A1        -0.9690     2.3760     3.0760 h1         1 2LM       0.045200
     38 H4A1        -2.0500     0.1070     3.3750 h1         1 2LM       0.038700
     39 C2A         -6.9170     2.6420     1.3710 c3         1 2LM      -0.121400
     40 P           -0.1880     4.1170     5.3020 p5         1 2LM       1.179900
@<TRIPOS>BOND
     1     1     3 1
     2     1    11 1
     3     1    22 1
     4     2    11 2
     5     2    16 1
     6    40    18 1
     7    40    19 1
     8    40    20 1
     9    40    21 1
    10     4     5 ar
    11     4    10 ar
    12     5     6 ar
    13     5    39 1
    14     6     7 1
    15     6     8 ar
    16     8     9 ar
    17     8    16 1
    18     9    10 ar
    19     9    17 1
    20    11    12 1
    21    12    15 1
    22    13    14 1
    23    13    15 1
    24    17    21 1
    25     7    23 1
    26    10    24 1
    27    12    25 1
    28    12    26 1
    29    14    27 1
    30    14    28 1
    31    14    29 1
    32    15    30 1
    33    15    31 1
    34    39    32 1
    35    39    33 1
    36    39    34 1
    37    16    35 1
    38    17    36 1
    39    17    37 1
    40    16    38 1
@<TRIPOS>SUBSTRUCTURE
     1 2LM         1 TEMP              0 ****  ****    0 ROOT
