@<TRIPOS>MOLECULE
2LN
   70    73     1     0     0
SMALL
bcc


@<TRIPOS>ATOM
      1 O4           0.0000     0.0000     0.0000 o          1 2LN      -0.646100
      2 C2           1.2130     0.0000     0.0000 c          1 2LN       0.587100
      3 C1           1.9660     0.0000     1.3050 c3         1 2LN      -0.102400
      4 C            0.9710    -0.0010     2.4680 c3         1 2LN       0.021900
      5 N            1.8870    -0.0040    -1.1670 n          1 2LN      -0.156800
      6 C7           1.1490    -0.0030    -2.4350 c3         1 2LN       0.115300
      7 C6           1.1170     1.4100    -2.9800 ca         1 2LN      -0.113300
      8 C8          -0.0730     2.0930    -3.0890 ca         1 2LN      -0.106000
      9 C9          -0.0840     3.3800    -3.6270 cp         1 2LN       0.013000
     10 C19         -1.3610     4.1270    -3.7450 cp         1 2LN      -0.037000
     11 C24         -1.3720     5.4100    -4.2880 ca         1 2LN      -0.175000
     12 C23         -2.5650     6.1000    -4.4000 ca         1 2LN       0.118100
     13 O2          -2.5790     7.3530    -4.9310 os         1 2LN      -0.292900
     14 C25         -1.3240     7.8940    -5.3480 c3         1 2LN       0.241700
     15 C22         -3.7520     5.5120    -3.9730 ca         1 2LN       0.122100
     16 O3          -4.9250     6.1910    -4.0850 os         1 2LN      -0.293900
     17 C26         -6.1050     5.5280    -3.6260 c3         1 2LN       0.241700
     18 C21         -3.7410     4.2350    -3.4330 ca         1 2LN      -0.175000
     19 C20         -2.5530     3.5430    -3.3180 ca         1 2LN      -0.088000
     20 C10          1.1090     3.9630    -4.0540 ca         1 2LN      -0.205000
     21 C11          2.3010     3.2730    -3.9280 ca         1 2LN       0.140100
     22 C5           2.3110     1.9960    -3.3720 ca         1 2LN       0.079100
     23 O            3.4880     1.3560    -3.1580 os         1 2LN      -0.305900
     24 C4           3.9070     1.2590    -1.7930 c3         1 2LN       0.192400
     25 C3           3.3510    -0.0030    -1.1610 c3         1 2LN       0.000000
     26 O1           3.4630     3.8430    -4.3470 os         1 2LN      -0.289900
     27 C12          3.3780     5.1550    -4.9070 c3         1 2LN       0.199400
     28 C13          4.7740     5.6260    -5.3180 c3         1 2LN      -0.056700
     29 C18          5.2990     4.7410    -6.4510 c3         1 2LN       0.154800
     30 N1           6.6310     5.2050    -6.8590 n3         1 2LN      -0.542600
     31 C17          7.2250     4.2970    -7.8500 c3         1 2LN       0.188100
     32 C16          6.5800     6.5810    -7.3730 c3         1 2LN       0.152800
     33 C15          6.0930     7.5210    -6.2660 c3         1 2LN      -0.021400
     34 C14          4.7030     7.0770    -5.8010 c3         1 2LN      -0.021400
     35 H1           2.5880     0.8850     1.3630 hc         1 2LN       0.027200
     36 H2           2.5890    -0.8840     1.3630 hc         1 2LN       0.027200
     37 H3           1.5120    -0.0060     3.4070 hc         1 2LN       0.009033
     38 H4           0.3510     0.8860     2.4140 hc         1 2LN       0.009033
     39 H5           0.3450    -0.8830     2.4080 hc         1 2LN       0.009033
     40 H6           0.1340    -0.3320    -2.2500 h1         1 2LN       0.046200
     41 H7           1.6660    -0.6410    -3.1420 h1         1 2LN       0.046200
     42 H8          -0.9790     1.6730    -2.6700 ha         1 2LN       0.130000
     43 H9          -0.4400     5.8920    -4.5580 ha         1 2LN       0.127000
     44 H10         -0.8870     7.2520    -6.1030 h1         1 2LN      -0.003967
     45 H11         -1.4770     8.8840    -5.7610 h1         1 2LN      -0.003967
     46 H12         -0.6570     7.9570    -4.4970 h1         1 2LN      -0.003967
     47 H13         -6.0020     5.2960    -2.5730 h1         1 2LN      -0.002633
     48 H14         -6.9620     6.1750    -3.7710 h1         1 2LN      -0.002633
     49 H15         -6.2450     4.6120    -4.1860 h1         1 2LN      -0.002633
     50 H16         -4.6660     3.7800    -3.1020 ha         1 2LN       0.123000
     51 H17         -2.5460     2.5450    -2.8960 ha         1 2LN       0.117000
     52 H18          1.1030     4.9620    -4.4720 ha         1 2LN       0.129000
     53 H19          3.5450     2.1210    -1.2460 h1         1 2LN       0.018700
     54 H20          4.9890     1.2310    -1.7520 h1         1 2LN       0.018700
     55 H21          3.6960    -0.8540    -1.7360 h1         1 2LN       0.036200
     56 H22          3.6890    -0.0480    -0.1330 h1         1 2LN       0.036200
     57 H23          2.7330     5.1350    -5.7770 h1         1 2LN       0.002700
     58 H24          2.9690     5.8360    -4.1700 h1         1 2LN       0.002700
     59 H25          5.4460     5.5620    -4.4710 hc         1 2LN       0.050700
     60 H26          5.3660     3.7160    -6.1060 h1         1 2LN       0.017700
     61 H27          4.6230     4.8000    -7.2950 h1         1 2LN       0.017700
     62 H29          7.3060     3.3030    -7.4250 h1         1 2LN       0.000033
     63 H30          8.2100     4.6540    -8.1230 h1         1 2LN       0.000033
     64 H31          6.5960     4.2620    -8.7310 h1         1 2LN       0.000033
     65 H32          5.8950     6.6270    -8.2110 h1         1 2LN       0.007700
     66 H33          7.5700     6.8830    -7.6920 h1         1 2LN       0.007700
     67 H34          6.0390     8.5320    -6.6500 hc         1 2LN       0.020200
     68 H35          6.7820     7.4820    -5.4310 hc         1 2LN       0.020200
     69 H36          4.0060     7.1480    -6.6270 hc         1 2LN       0.013200
     70 H37          4.3750     7.7130    -4.9880 hc         1 2LN       0.013200
@<TRIPOS>BOND
     1     1     2 2   
     2     2     3 1   
     3     2     5 1   
     4     3     4 1   
     5     3    35 1   
     6     3    36 1   
     7     4    37 1   
     8     4    38 1   
     9     4    39 1   
    10     5     6 1   
    11     5    25 1   
    12     6     7 1   
    13     6    40 1   
    14     6    41 1   
    15     7     8 ar  
    16     7    22 ar  
    17     8     9 ar  
    18     8    42 1   
    19     9    10 1   
    20     9    20 ar  
    21    10    11 ar  
    22    10    19 ar  
    23    11    12 ar  
    24    11    43 1   
    25    12    13 1   
    26    12    15 ar  
    27    13    14 1   
    28    14    44 1   
    29    14    45 1   
    30    14    46 1   
    31    15    16 1   
    32    15    18 ar  
    33    16    17 1   
    34    17    47 1   
    35    17    48 1   
    36    17    49 1   
    37    18    19 ar  
    38    18    50 1   
    39    19    51 1   
    40    20    21 ar  
    41    20    52 1   
    42    21    22 ar  
    43    21    26 1   
    44    22    23 1   
    45    23    24 1   
    46    24    25 1   
    47    24    53 1   
    48    24    54 1   
    49    25    55 1   
    50    25    56 1   
    51    26    27 1   
    52    27    28 1   
    53    27    57 1   
    54    27    58 1   
    55    28    29 1   
    56    28    34 1   
    57    28    59 1   
    58    29    30 1   
    59    29    60 1   
    60    29    61 1   
    61    30    31 1   
    62    30    32 1   
    63    31    62 1   
    64    31    63 1   
    65    31    64 1   
    66    32    33 1   
    67    32    65 1   
    68    32    66 1   
    69    33    34 1   
    70    33    67 1   
    71    33    68 1   
    72    34    69 1   
    73    34    70 1   
@<TRIPOS>SUBSTRUCTURE
     1 2LN         1 TEMP              0 ****  ****    0 ROOT
