@<TRIPOS>MOLECULE
molecule
   70    73     1     0     0
SMALL
bcc


@<TRIPOS>ATOM
      1 O4           0.0000     0.0000     0.0000 o          1 2LN      -0.608100
      2 C2           1.2130     0.0000     0.0000 c          1 2LN       0.661100
      3 C1           1.9660     0.0000     1.3050 c3         1 2LN      -0.159400
      4 C            0.9710    -0.0010     2.4680 c3         1 2LN      -0.077100
      5 N            1.8870    -0.0040    -1.1670 n          1 2LN      -0.492800
      6 C7           1.1490    -0.0030    -2.4350 c3         1 2LN       0.160300
      7 C6           1.1170     1.4100    -2.9800 ca         1 2LN      -0.101300
      8 C8          -0.0730     2.0930    -3.0890 ca         1 2LN      -0.129000
      9 C9          -0.0840     3.3800    -3.6270 cp         1 2LN       0.004000
     10 C19         -1.3610     4.1270    -3.7450 cp         1 2LN      -0.041000
     11 C24         -1.3720     5.4100    -4.2880 ca         1 2LN      -0.179000
     12 C23         -2.5650     6.1000    -4.4000 ca         1 2LN       0.114100
     13 O2          -2.5790     7.3530    -4.9310 os         1 2LN      -0.312900
     14 C25         -1.3240     7.8940    -5.3480 c3         1 2LN       0.127700
     15 C22         -3.7520     5.5120    -3.9730 ca         1 2LN       0.121100
     16 O3          -4.9250     6.1910    -4.0850 os         1 2LN      -0.312900
     17 C26         -6.1050     5.5280    -3.6260 c3         1 2LN       0.126700
     18 C21         -3.7410     4.2350    -3.4330 ca         1 2LN      -0.189000
     19 C20         -2.5530     3.5430    -3.3180 ca         1 2LN      -0.110000
     20 C10          1.1090     3.9630    -4.0540 ca         1 2LN      -0.209000
     21 C11          2.3010     3.2730    -3.9280 ca         1 2LN       0.134100
     22 C5           2.3110     1.9960    -3.3720 ca         1 2LN       0.080100
     23 O            3.4880     1.3560    -3.1580 os         1 2LN      -0.325900
     24 C4           3.9070     1.2590    -1.7930 c3         1 2LN       0.121400
     25 C3           3.3510    -0.0030    -1.1610 c3         1 2LN       0.067000
     26 O1           3.4630     3.8430    -4.3470 os         1 2LN      -0.315900
     27 C12          3.3780     5.1550    -4.9070 c3         1 2LN       0.136400
     28 C13          4.7740     5.6260    -5.3180 c3         1 2LN      -0.067700
     29 C18          5.2990     4.7410    -6.4510 c3         1 2LN       0.168800
     30 N1           6.6310     5.2050    -6.8590 n3         1 2LN      -0.730600
     31 C17          7.2250     4.2970    -7.8500 c3         1 2LN       0.154100
     32 C16          6.5800     6.5810    -7.3730 c3         1 2LN       0.161800
     33 C15          6.0930     7.5210    -6.2660 c3         1 2LN      -0.075400
     34 C14          4.7030     7.0770    -5.8010 c3         1 2LN      -0.077400
     35 H1           2.5880     0.8850     1.3630 hc         1 2LN       0.057700
     36 H2           2.5890    -0.8840     1.3630 hc         1 2LN       0.057700
     37 H3           1.5120    -0.0060     3.4070 hc         1 2LN       0.044033
     38 H4           0.3510     0.8860     2.4140 hc         1 2LN       0.044033
     39 H5           0.3450    -0.8830     2.4080 hc         1 2LN       0.044033
     40 H6           0.1340    -0.3320    -2.2500 h1         1 2LN       0.077200
     41 H7           1.6660    -0.6410    -3.1420 h1         1 2LN       0.077200
     42 H8          -0.9790     1.6730    -2.6700 ha         1 2LN       0.150000
     43 H9          -0.4400     5.8920    -4.5580 ha         1 2LN       0.140000
     44 H10         -0.8870     7.2520    -6.1030 h1         1 2LN       0.039367
     45 H11         -1.4770     8.8840    -5.7610 h1         1 2LN       0.039367
     46 H12         -0.6570     7.9570    -4.4970 h1         1 2LN       0.039367
     47 H13         -6.0020     5.2960    -2.5730 h1         1 2LN       0.041367
     48 H14         -6.9620     6.1750    -3.7710 h1         1 2LN       0.041367
     49 H15         -6.2450     4.6120    -4.1860 h1         1 2LN       0.041367
     50 H16         -4.6660     3.7800    -3.1020 ha         1 2LN       0.143000
     51 H17         -2.5460     2.5450    -2.8960 ha         1 2LN       0.141000
     52 H18          1.1030     4.9620    -4.4720 ha         1 2LN       0.139000
     53 H19          3.5450     2.1210    -1.2460 h1         1 2LN       0.058700
     54 H20          4.9890     1.2310    -1.7520 h1         1 2LN       0.058700
     55 H21          3.6960    -0.8540    -1.7360 h1         1 2LN       0.060700
     56 H22          3.6890    -0.0480    -0.1330 h1         1 2LN       0.060700
     57 H23          2.7330     5.1350    -5.7770 h1         1 2LN       0.034700
     58 H24          2.9690     5.8360    -4.1700 h1         1 2LN       0.034700
     59 H25          5.4460     5.5620    -4.4710 hc         1 2LN       0.079700
     60 H26          5.3660     3.7160    -6.1060 h1         1 2LN       0.043200
     61 H27          4.6230     4.8000    -7.2950 h1         1 2LN       0.043200
     62 H29          7.3060     3.3030    -7.4250 h1         1 2LN       0.032367
     63 H30          8.2100     4.6540    -8.1230 h1         1 2LN       0.032367
     64 H31          6.5960     4.2620    -8.7310 h1         1 2LN       0.032367
     65 H32          5.8950     6.6270    -8.2110 h1         1 2LN       0.033200
     66 H33          7.5700     6.8830    -7.6920 h1         1 2LN       0.033200
     67 H34          6.0390     8.5320    -6.6500 hc         1 2LN       0.050200
     68 H35          6.7820     7.4820    -5.4310 hc         1 2LN       0.050200
     69 H36          4.0060     7.1480    -6.6270 hc         1 2LN       0.040700
     70 H37          4.3750     7.7130    -4.9880 hc         1 2LN       0.040700
@<TRIPOS>BOND
     1    14    13 1
     2    13    12 1
     3    16    17 1
     4    16    15 1
     5    12    15 ar
     6    12    11 ar
     7    15    18 ar
     8    11    10 ar
     9     4     3 1
    10    18    19 ar
    11     3     2 1
    12    10    19 ar
    13    10     9 1
    14     8     9 ar
    15     8     7 ar
    16     2     1 2
    17     2     5 1
    18     9    20 ar
    19     6     7 1
    20     6     5 1
    21     7    22 ar
    22     5    25 1
    23    20    21 ar
    24    22    21 ar
    25    22    23 1
    26    25    24 1
    27    21    26 1
    28    23    24 1
    29    26    27 1
    30    27    28 1
    31    28    34 1
    32    28    29 1
    33    34    33 1
    34    29    30 1
    35    33    32 1
    36    30    31 1
    37    30    32 1
    38     3    35 1
    39     3    36 1
    40     4    37 1
    41     4    38 1
    42     4    39 1
    43     6    40 1
    44     6    41 1
    45     8    42 1
    46    11    43 1
    47    14    44 1
    48    14    45 1
    49    14    46 1
    50    17    47 1
    51    17    48 1
    52    17    49 1
    53    18    50 1
    54    19    51 1
    55    20    52 1
    56    24    53 1
    57    24    54 1
    58    25    55 1
    59    25    56 1
    60    27    57 1
    61    27    58 1
    62    28    59 1
    63    29    60 1
    64    29    61 1
    65    31    62 1
    66    31    63 1
    67    31    64 1
    68    32    65 1
    69    32    66 1
    70    33    67 1
    71    33    68 1
    72    34    69 1
    73    34    70 1
@<TRIPOS>SUBSTRUCTURE
     1 2LN         1 TEMP              0 ****  ****    0 ROOT
