@<TRIPOS>MOLECULE
2LO
   69    73     1     0     0
SMALL
bcc


@<TRIPOS>ATOM
      1 CL          0.2090   -0.8260    0.0420 cl        1 2LO     -0.073400
      2 C16         1.8330   -0.3260    0.0460 ca        1 2LO     -0.011600
      3 C15         2.4830    0.0900    1.2280 ca        1 2LO      0.135100
      4 O           1.7300    0.0750    2.3840 os        1 2LO     -0.312900
      5 C18         2.4000    0.4590    3.5800 c3        1 2LO      0.112700
      6 C14         3.8250    0.4910    1.1780 ca        1 2LO     -0.195000
      7 C13         4.5100    0.4800   -0.0320 ca        1 2LO     -0.089000
      8 C17         2.5370   -0.3310   -1.1600 ca        1 2LO     -0.096000
      9 C12         3.8740    0.0730   -1.2090 ca        1 2LO     -0.112300
     10 C11         4.6200    0.0570   -2.4970 c3        1 2LO     -0.032100
     11 C10         4.8230    1.4670   -3.0300 c3        1 2LO     -0.092700
     12 C9          5.6270    1.4430   -4.2910 cc        1 2LO      0.414800
     13 N1          5.0340    1.2700   -5.5740 na        1 2LO     -0.155300
     14 C19         3.6360    1.2340   -5.8690 c3        1 2LO      0.051300
     15 C20         2.9350    2.6230   -5.9700 c3        1 2LO      0.163500
     16 N2          3.4320    3.3850   -7.1100 n3        1 2LO     -0.728600
     17 C25         2.8340    3.0170   -8.3860 c3        1 2LO      0.136300
     18 C24         3.4160    3.8290   -9.5500 c3        1 2LO      0.125900
     19 O1          3.3130    5.2270   -9.3090 os        1 2LO     -0.413600
     20 C23         3.9460    5.6080   -8.0930 c3        1 2LO      0.125900
     21 C22         3.3940    4.8270   -6.8930 c3        1 2LO      0.136300
     22 C21         1.4280    2.3700   -5.9260 c3        1 2LO     -0.127100
     23 C6          6.0870    1.3020   -6.4970 ca        1 2LO     -0.048200
     24 C5          6.1410    1.1980   -7.8920 ca        1 2LO     -0.123000
     25 C4          7.3870    1.2310   -8.4950 ca        1 2LO     -0.106000
     26 N           6.9710    1.5370   -4.3480 nd        1 2LO     -0.567100
     27 C7          7.3020    1.4510   -5.7140 ca        1 2LO      0.062400
     28 C8          8.5440    1.4810   -6.3580 ca        1 2LO     -0.063000
     29 C3          8.5810    1.3660   -7.7490 ca        1 2LO     -0.032000
     30 C2          9.8520    1.4040   -8.4310 cc        1 2LO     -0.264600
     31 C26        10.9580    2.1910   -8.1420 cd        1 2LO      0.272000
     32 C27        11.2860    3.2050   -7.1430 c3        1 2LO     -0.141400
     33 O2         11.9650    1.8780   -9.0850 os        1 2LO     -0.120100
     34 N3         11.5380    0.9490   -9.9150 nd        1 2LO     -0.367300
     35 C1         10.2740    0.6060   -9.5930 cc        1 2LO      0.332600
     36 C           9.4580   -0.4100  -10.2840 c3        1 2LO     -0.134400
     37 H1          3.2580   -0.2250    3.7910 h1        1 2LO      0.048033
     38 H2          2.7470    1.5190    3.5160 h1        1 2LO      0.048033
     39 H3          1.6060    0.3500    4.3620 h1        1 2LO      0.048033
     40 H4          4.3460    0.8140    2.0910 ha        1 2LO      0.144000
     41 H5          5.5660    0.7930   -0.0640 ha        1 2LO      0.142000
     42 H6          2.0300   -0.6610   -2.0810 ha        1 2LO      0.144000
     43 H7          5.6220   -0.4280   -2.3440 hc        1 2LO      0.060200
     44 H8          4.0670   -0.5560   -3.2580 hc        1 2LO      0.060200
     45 H9          5.3650    2.0830   -2.2620 hc        1 2LO      0.068200
     46 H10         3.8300    1.9560   -3.2150 hc        1 2LO      0.068200
     47 H11         3.1230    0.6620   -5.0420 h1        1 2LO      0.062200
     48 H12         3.4950    0.6720   -6.8350 h1        1 2LO      0.062200
     49 H13         3.2060    3.2070   -5.0370 h1        1 2LO      0.063700
     50 H15         3.0420    1.9260   -8.5680 h1        1 2LO      0.039950
     51 H16         1.7140    3.1630   -8.3820 h1        1 2LO      0.039950
     52 H17         4.4880    3.5540   -9.7290 h1        1 2LO      0.056700
     53 H18         2.8110    3.6590  -10.4790 h1        1 2LO      0.056700
     54 H19         5.0540    5.4590   -8.1840 h1        1 2LO      0.056700
     55 H20         3.7090    6.6980   -7.9840 h1        1 2LO      0.056700
     56 H21         2.3450    5.1870   -6.6830 h1        1 2LO      0.039950
     57 H22         4.0320    5.0620   -5.9970 h1        1 2LO      0.039950
     58 H23         1.1190    1.6470   -6.7180 hc        1 2LO      0.045367
     59 H24         0.8660    3.3230   -6.0750 hc        1 2LO      0.045367
     60 H25         1.1480    1.9470   -4.9310 hc        1 2LO      0.045367
     61 H26         5.2220    1.1120   -8.4880 ha        1 2LO      0.136000
     62 H27         7.4560    1.1620   -9.5920 ha        1 2LO      0.136000
     63 H28         9.4710    1.5870   -5.7750 ha        1 2LO      0.148000
     64 H29        10.3460    3.6720   -6.7560 hc        1 2LO      0.067033
     65 H30        11.9410    3.9970   -7.5850 hc        1 2LO      0.067033
     66 H31        11.8320    2.7330   -6.2860 hc        1 2LO      0.067033
     67 H32         8.7210   -0.8510   -9.5660 hc        1 2LO      0.058700
     68 H33        10.0930   -1.2320  -10.7000 hc        1 2LO      0.058700
     69 H34         8.8980    0.0640  -11.1300 hc        1 2LO      0.058700
@<TRIPOS>BOND
     1    1    2 1   
     2    2    3 ar  
     3    2    8 ar  
     4    3    4 1   
     5    3    6 ar  
     6    4    5 1   
     7    5   37 1   
     8    5   38 1   
     9    5   39 1   
    10    6    7 ar  
    11    6   40 1   
    12    7    9 ar  
    13    7   41 1   
    14    8    9 ar  
    15    8   42 1   
    16    9   10 1   
    17   10   11 1   
    18   10   43 1   
    19   10   44 1   
    20   11   12 1   
    21   11   45 1   
    22   11   46 1   
    23   12   13 1   
    24   12   26 2   
    25   13   14 1   
    26   13   23 1   
    27   14   15 1   
    28   14   47 1   
    29   14   48 1   
    30   15   16 1   
    31   15   22 1   
    32   15   49 1   
    33   16   17 1   
    34   16   21 1   
    35   17   18 1   
    36   17   50 1   
    37   17   51 1   
    38   18   19 1   
    39   18   52 1   
    40   18   53 1   
    41   19   20 1   
    42   20   21 1   
    43   20   54 1   
    44   20   55 1   
    45   21   56 1   
    46   21   57 1   
    47   22   58 1   
    48   22   59 1   
    49   22   60 1   
    50   23   24 ar  
    51   23   27 ar  
    52   24   25 ar  
    53   24   61 1   
    54   25   29 ar  
    55   25   62 1   
    56   26   27 1   
    57   27   28 ar  
    58   28   29 ar  
    59   28   63 1   
    60   29   30 1   
    61   30   31 2   
    62   30   35 1   
    63   31   32 1   
    64   31   33 1   
    65   32   64 1   
    66   32   65 1   
    67   32   66 1   
    68   33   34 1   
    69   34   35 2   
    70   35   36 1   
    71   36   67 1   
    72   36   68 1   
    73   36   69 1   
@<TRIPOS>SUBSTRUCTURE
     1 2LO         1 TEMP              0 ****  ****    0 ROOT
