@<TRIPOS>MOLECULE
2LP
   20    20     1     0     0
SMALL
bcc


@<TRIPOS>ATOM
      1 C1          0.1210    0.0100   -0.0710 ca        1 2LP     -0.095300
      2 C2          1.5020   -0.2480    0.0490 ca        1 2LP      0.127100
      3 C3         -0.6150    0.2080    1.1010 ca        1 2LP     -0.099000
      4 C4         -0.5460    0.0550   -1.4010 c3        1 2LP     -0.003900
      5 C5          2.1220   -0.2990    1.3060 ca        1 2LP     -0.211000
      6 O6          2.2090   -0.4540   -1.1160 oh        1 2LP     -0.499100
      7 C7         -0.0050    0.1590    2.3530 ca        1 2LP     -0.162000
      8 C8          1.3630   -0.0940    2.4550 ca        1 2LP     -0.094000
      9 C13        -1.0960    1.4010   -1.7100 c2        1 2LP     -0.159200
     10 C14        -0.9810    1.9910   -2.8970 c2        1 2LP     -0.222000
     11 HC3        -1.6960    0.4060    1.0250 ha        1 2LP      0.134000
     12 HC41        0.1750   -0.2670   -2.2020 hc        1 2LP      0.063700
     13 HC42       -1.3960   -0.6850   -1.4040 hc        1 2LP      0.063700
     14 HC5         3.2000   -0.5000    1.3800 ha        1 2LP      0.132000
     15 HO6         3.1360   -0.6000   -0.8780 ho        1 2LP      0.419000
     16 HC7        -0.6040    0.3190    3.2610 ha        1 2LP      0.133000
     17 HC8         1.8450   -0.1320    3.4420 ha        1 2LP      0.132000
     18 H13        -1.6270    1.8910   -0.8760 ha        1 2LP      0.118000
     19 H141       -0.4490    1.5320   -3.7400 ha        1 2LP      0.111500
     20 H142       -1.4130    2.9790   -3.1030 ha        1 2LP      0.111500
@<TRIPOS>BOND
     1    1    2 ar  
     2    1    3 ar  
     3    1    4 1   
     4    2    5 ar  
     5    2    6 1   
     6    3    7 ar  
     7    3   11 1   
     8    4    9 1   
     9    4   12 1   
    10    4   13 1   
    11    5    8 ar  
    12    5   14 1   
    13    6   15 1   
    14    7    8 ar  
    15    7   16 1   
    16    8   17 1   
    17    9   10 2   
    18    9   18 1   
    19   10   19 1   
    20   10   20 1   
@<TRIPOS>SUBSTRUCTURE
     1 2LP         1 TEMP              0 ****  ****    0 ROOT
