@<TRIPOS>MOLECULE
molecule
   20    20     1     0     0
SMALL
bcc


@<TRIPOS>ATOM
      1 C1           0.0000     0.0000     0.0000 ca         1 2LP      -0.096300
      2 C2           1.3860     0.0000     0.0000 ca         1 2LP       0.125100
      3 C3          -0.6900    -0.0100     1.1960 ca         1 2LP      -0.102000
      4 C4          -0.7530    -0.0030    -1.3040 c3         1 2LP       0.004100
      5 C5           2.0770     0.0000     1.2040 ca         1 2LP      -0.194000
      6 O6           2.0680     0.0020    -1.1750 oh         1 2LP      -0.506100
      7 C7          -0.0000    -0.0080     2.3930 ca         1 2LP      -0.150000
      8 C8           1.3830    -0.0030     2.3970 ca         1 2LP      -0.104000
      9 C13         -1.0170     1.4160    -1.7360 c2         1 2LP      -0.168200
     10 C14         -0.5470     1.8520    -2.8780 c2         1 2LP      -0.213000
     11 HC3         -1.7740    -0.0120     1.1950 ha         1 2LP       0.134000
     12 HC41        -0.1640    -0.5060    -2.0610 hc         1 2LP       0.055700
     13 HC42        -1.6950    -0.5220    -1.1760 hc         1 2LP       0.055700
     14 HC5          3.1600     0.0020     1.2070 ha         1 2LP       0.133000
     15 HO6          2.7780    -0.6160    -1.1270 ho         1 2LP       0.418000
     16 HC7         -0.5440    -0.0130     3.3310 ha         1 2LP       0.131000
     17 HC8          1.9220    -0.0030     3.3370 ha         1 2LP       0.131000
     18 H13         -1.5970     2.0760    -1.1020 ha         1 2LP       0.122000
     19 H141        -0.7370     2.8730    -3.1880 ha         1 2LP       0.112500
     20 H142         0.0330     1.1930    -3.5120 ha         1 2LP       0.112500
@<TRIPOS>BOND
     1     1     2 ar
     2     1     3 ar
     3     1     4 1
     4     2     5 ar
     5     2     6 1
     6     3     7 ar
     7     3    11 1
     8     4     9 1
     9     4    12 1
    10     4    13 1
    11     5     8 ar
    12     5    14 1
    13     6    15 1
    14     7     8 ar
    15     7    16 1
    16     8    17 1
    17     9    10 2
    18     9    18 1
    19    10    19 1
    20    10    20 1
@<TRIPOS>SUBSTRUCTURE
     1 2LP         1 TEMP              0 ****  ****    0 ROOT
