@<TRIPOS>MOLECULE
molecule
   47    48     1     0     0
SMALL
bcc


@<TRIPOS>ATOM
      1 O01          0.0000     0.0000     0.0000 o          1 2LQ      -0.592100
      2 C02          1.2130     0.0000     0.0000 c          1 2LQ       0.661100
      3 C03          1.9660     0.0000     1.3050 c3         1 2LQ      -0.142700
      4 C04          0.9650    -0.0550     2.4590 c3         1 2LQ      -0.077400
      5 C05          1.0370    -1.4000     3.2150 c3         1 2LQ      -0.073400
      6 C06          2.0510    -1.2940     4.3820 c3         1 2LQ      -0.045200
      7 C07          3.2540    -0.7990     3.6220 c2         1 2LQ      -0.181200
      8 C08          3.4860     0.4310     3.4620 c2         1 2LQ      -0.191200
      9 C09          4.1270     0.9690     2.2090 c3         1 2LQ      -0.043200
     10 C10          2.8500     1.2630     1.3770 c3         1 2LQ      -0.071400
     11 N11          1.8870    -0.0060    -1.1670 ns         1 2LQ      -0.481100
     12 C12          1.1920    -0.1100    -2.3770 ca         1 2LQ       0.062600
     13 C13         -0.0510     0.4950    -2.5190 ca         1 2LQ      -0.139500
     14 C14         -0.7350     0.3910    -3.7130 ca         1 2LQ      -0.120000
     15 C15          1.7440    -0.8130    -3.4390 ca         1 2LQ      -0.139500
     16 C16          1.0540    -0.9120    -4.6320 ca         1 2LQ      -0.120000
     17 C17         -0.1850    -0.3140    -4.7680 ca         1 2LQ      -0.144300
     18 C18         -0.9350    -0.4260    -6.0700 c3         1 2LQ      -0.038100
     19 C19         -0.5480     0.7400    -6.9820 c3         1 2LQ      -0.013500
     20 C20         -1.2030     0.5620    -8.3290 c          1 2LQ       0.868600
     21 O21         -0.6680    -0.2760    -9.2300 o          1 2LQ      -0.777300
     22 O22         -2.2090     1.1750    -8.5970 o          1 2LQ      -0.777300
     23 N23         -1.0000     2.0020    -6.3810 nz         1 2LQ      -0.789600
     24 H031         2.6020    -0.8760     1.3510 hc         1 2LQ       0.078700
     25 H042        -0.0350     0.0730     2.0630 hc         1 2LQ       0.066700
     26 H041         1.1820     0.7500     3.1510 hc         1 2LQ       0.066700
     27 H051         1.3560    -2.1780     2.5320 hc         1 2LQ       0.046700
     28 H052         0.0580    -1.6410     3.6110 hc         1 2LQ       0.046700
     29 H062         1.7270    -0.5690     5.1190 hc         1 2LQ       0.053200
     30 H061         2.2400    -2.2640     4.8260 hc         1 2LQ       0.053200
     31 H071         3.9440    -1.5220     3.2030 ha         1 2LQ       0.119000
     32 H081         3.2210     1.1220     4.2530 ha         1 2LQ       0.125000
     33 H092         4.7420     0.2170     1.7290 hc         1 2LQ       0.052200
     34 H091         4.6820     1.8770     2.4100 hc         1 2LQ       0.052200
     35 H102         2.2930     2.0640     1.8480 hc         1 2LQ       0.046700
     36 H101         3.1360     1.5580     0.3750 hc         1 2LQ       0.046700
     37 H111         2.8870     0.0350    -1.1670 hn         1 2LQ       0.328500
     38 H131        -0.4820     1.0470    -1.6930 ha         1 2LQ       0.154500
     39 H141        -1.7050     0.8610    -3.8230 ha         1 2LQ       0.134500
     40 H151         2.7150    -1.2820    -3.3330 ha         1 2LQ       0.154500
     41 H161         1.4830    -1.4620    -5.4600 ha         1 2LQ       0.134500
     42 H181        -2.0000    -0.3960    -5.8770 hc         1 2LQ       0.091200
     43 H182        -0.6810    -1.3620    -6.5530 hc         1 2LQ       0.091200
     44 H191         0.5280     0.7630    -7.1040 hx         1 2LQ       0.104700
     45 H232        -1.0000     2.7220    -7.0760 hn         1 2LQ       0.439467
     46 H231        -0.3820     2.2570    -5.6360 hn         1 2LQ       0.439467
     47 H233        -1.9270     1.8870    -6.0210 hn         1 2LQ       0.439467
@<TRIPOS>BOND
     1     5     4 1
     2     5     6 1
     3     4     3 1
     4     6     7 1
     5     1     2 2
     6     2     3 1
     7     2    11 1
     8     3    10 1
     9     7     8 2
    10    11    12 1
    11    12    15 ar
    12    12    13 ar
    13    15    16 ar
    14     8     9 1
    15    23    19 1
    16    13    14 ar
    17    10     9 1
    18    16    17 ar
    19    14    17 ar
    20    17    18 1
    21    19    18 1
    22    19    20 1
    23    22    20 1
    24    20    21 1
    25     3    24 1
    26     4    25 1
    27     4    26 1
    28     5    27 1
    29     5    28 1
    30     6    29 1
    31     6    30 1
    32     7    31 1
    33     8    32 1
    34     9    33 1
    35     9    34 1
    36    10    35 1
    37    10    36 1
    38    11    37 1
    39    13    38 1
    40    14    39 1
    41    15    40 1
    42    16    41 1
    43    18    42 1
    44    18    43 1
    45    19    44 1
    46    23    45 1
    47    23    46 1
    48    47    23 1
@<TRIPOS>SUBSTRUCTURE
     1 2LQ         1 TEMP              0 ****  ****    0 ROOT
