@<TRIPOS>MOLECULE
molecule
   32    32     1     0     0
SMALL
bcc


@<TRIPOS>ATOM
      1 C26          0.0000     0.0000     0.0000 c3         1 2LS      -0.108400
      2 C28         -2.0340     0.0010    -1.4510 c3         1 2LS      -0.091600
      3 C33          2.0390     0.0000     1.4430 c3         1 2LS       0.149100
      4 C34          3.5690    -0.0010     1.4440 cx         1 2LS      -0.057200
      5 C45          4.2340     0.7510     0.2890 c3         1 2LS      -0.074100
      6 O40          4.2350    -1.1560     1.9580 op         1 2LS      -0.353600
      7 C35          4.2820    -0.0010     2.7980 cx         1 2LS       0.112400
      8 O43          1.5630    -1.1670     2.1160 oh         1 2LS      -0.599800
      9 C25          1.5300     0.0000     0.0000 c3         1 2LS       0.100500
     10 C27         -0.5090     0.1260    -1.4380 c3         1 2LS      -0.091700
     11 C29         -0.1040     1.4880    -2.0050 c3         1 2LS      -0.091600
     12 N24          2.0200    -1.2000    -0.6920 nz         1 2LS      -0.803600
     13 H14         -0.3610     0.8370     0.5860 hc         1 2LS       0.087700
     14 H15         -0.3610    -0.9260     0.4310 hc         1 2LS       0.087700
     15 H16         -2.3930     0.0720    -2.4710 hc         1 2LS       0.050700
     16 H17         -2.4680     0.7980    -0.8590 hc         1 2LS       0.050700
     17 H18         -2.3220    -0.9570    -1.0330 hc         1 2LS       0.050700
     18 H19          1.6780     0.8840     1.9540 h1         1 2LS       0.093700
     19 H20          4.4100     0.0670    -0.5330 hc         1 2LS       0.055033
     20 H21          5.1770     1.1650     0.6230 hc         1 2LS       0.055033
     21 H22          3.5840     1.5530    -0.0420 hc         1 2LS       0.055033
     22 H23          5.2320     0.5190     2.8290 h1         1 2LS       0.100700
     23 H24          3.6380    -0.0270     3.6680 h1         1 2LS       0.100700
     24 H25          1.1420    -0.9150     2.9220 ho         1 2LS       0.442000
     25 H26          1.8910     0.8850    -0.5110 hx         1 2LS       0.120700
     26 H27         -0.0770    -0.6610    -2.0440 hc         1 2LS       0.024700
     27 H28         -0.2340     2.2490    -1.2450 hc         1 2LS       0.050700
     28 H29         -0.7250     1.7220    -2.8600 hc         1 2LS       0.050700
     29 H30          0.9350     1.4570    -2.3110 hc         1 2LS       0.050700
     30 H31          2.5780    -1.7430    -0.0640 hn         1 2LS       0.461133
     31 H2           1.2410    -1.7460    -1.0050 hn         1 2LS       0.461133
     32 H243         2.5740    -0.9280    -1.4800 hn         1 2LS       0.461133
@<TRIPOS>BOND
     1    11    10 1   
     2    12     9 1   
     3     5     4 1   
     4     6     4 1   
     5     6     7 1   
     6     9     1 1   
     7     9     3 1   
     8     4     7 1   
     9     4     3 1   
    10    10     2 1   
    11    10     1 1   
    12     3     8 1   
    13     1    13 1   
    14     1    14 1   
    15     2    15 1   
    16     2    16 1   
    17     2    17 1   
    18     3    18 1   
    19     5    19 1   
    20     5    20 1   
    21     5    21 1   
    22     7    22 1   
    23     7    23 1   
    24     8    24 1   
    25     9    25 1   
    26    10    26 1   
    27    11    27 1   
    28    11    28 1   
    29    11    29 1   
    30    12    30 1   
    31    12    31 1   
    32    32    12 1   
@<TRIPOS>SUBSTRUCTURE
     1 2LS         1 TEMP              0 ****  ****    0 ROOT
