@<TRIPOS>MOLECULE
molecule
   30    32     1     0     0
SMALL
bcc


@<TRIPOS>ATOM
      1 CAH          0.0000     0.0000     0.0000 c3         1 2LW       0.109000
      2 CAG          1.5320     0.0000     0.0000 c3         1 2LW      -0.035200
      3 CAM          2.0240     0.0000     1.4280 cc         1 2LW      -0.054300
      4 NAJ          3.2820    -0.3440     1.8530 na         1 2LW      -0.170400
      5 CAO          3.3640    -0.2200     3.2090 ca         1 2LW      -0.034200
      6 CAE          4.4060    -0.4420     4.1050 ca         1 2LW      -0.138000
      7 CAD          4.1460    -0.2140     5.4450 ca         1 2LW      -0.103000
      8 CAL          2.9070     0.2160     5.8960 ca         1 2LW      -0.000600
      9 Cl           2.6710     0.4760     7.5960 cl         1 2LW      -0.118400
     10 CAF          1.8540     0.4460     5.0280 ca         1 2LW      -0.067000
     11 CAP          2.0960     0.2220     3.6700 ca         1 2LW      -0.087800
     12 CAN          1.2660     0.3480     2.4900 cd         1 2LW      -0.162400
     13 CAI         -0.1770     0.7780     2.3970 c3         1 2LW       0.187200
     14 NAQ         -0.4830     0.9930     0.9710 n          1 2LW      -0.497800
     15 CAK         -1.1840     2.0720     0.5690 c          1 2LW       0.664100
     16 OAB         -1.5740     2.8810     1.3840 o          1 2LW      -0.603100
     17 CAA         -1.4830     2.2730    -0.8950 c3         1 2LW      -0.171100
     18 H1          -0.3610     0.2570    -0.9890 h1         1 2LW       0.056200
     19 H2          -0.3610    -0.9830     0.2790 h1         1 2LW       0.056200
     20 H3           1.8940     0.8870    -0.5070 hc         1 2LW       0.058200
     21 H4           1.8930    -0.8870    -0.5070 hc         1 2LW       0.058200
     22 H5           4.0290    -0.6410     1.2570 hn         1 2LW       0.297700
     23 H6           5.3790    -0.7780     3.7680 ha         1 2LW       0.138000
     24 H7           4.9370    -0.3770     6.1670 ha         1 2LW       0.142000
     25 H8           0.8870     0.7820     5.3850 ha         1 2LW       0.153000
     26 H9          -0.3220     1.7000     2.9460 h1         1 2LW       0.071700
     27 H10         -0.8180     0.0000     2.7960 h1         1 2LW       0.071700
     28 H11         -2.0100     1.4070    -1.2780 hc         1 2LW       0.060367
     29 H12         -2.0990     3.1550    -1.0200 hc         1 2LW       0.060367
     30 H13         -0.5550     2.4010    -1.4390 hc         1 2LW       0.060367
@<TRIPOS>BOND
     1     6     5 ar
     2     6     7 ar
     3     4     5 1
     4     4     3 1
     5     5    11 ar
     6     2     3 1
     7     2     1 1
     8     7     8 ar
     9     3    12 2
    10    16    15 2
    11    15    17 1
    12    15    14 1
    13    11    12 1
    14    11    10 ar
    15     8    10 ar
    16     8     9 1
    17    12    13 1
    18    14     1 1
    19    14    13 1
    20     1    18 1
    21     1    19 1
    22     2    20 1
    23     2    21 1
    24     4    22 1
    25     6    23 1
    26     7    24 1
    27    10    25 1
    28    13    26 1
    29    13    27 1
    30    17    28 1
    31    17    29 1
    32    17    30 1
@<TRIPOS>SUBSTRUCTURE
     1 2LW         1 TEMP              0 ****  ****    0 ROOT
