@<TRIPOS>MOLECULE
molecule
   34    35     1     0     0
SMALL
bcc


@<TRIPOS>ATOM
      1 C01          0.0000     0.0000     0.0000 c3         1 2LX       0.106300
      2 N02          1.4650     0.0000     0.0000 ns         1 2LX      -0.592900
      3 C03          2.1400     0.0000     1.1660 c          1 2LX       0.674700
      4 C04          3.6150     0.0010     1.1660 ca         1 2LX      -0.182600
      5 C05          4.3170     0.0030    -0.0420 ca         1 2LX      -0.069000
      6 C06          5.6950     0.0040    -0.0350 ca         1 2LX      -0.180000
      7 C07          6.3880     0.0030     1.1640 ca         1 2LX      -0.066000
      8 C08          5.7070     0.0020     2.3650 ca         1 2LX      -0.239000
      9 C09          4.3200     0.0060     2.3770 ca         1 2LX       0.202100
     10 O10          3.6490     0.0040     3.5570 os         1 2LX      -0.276900
     11 C11          4.4300    -0.1220     4.7460 c3         1 2LX       0.136100
     12 C12          4.9340     1.2590     5.1780 c3         1 2LX      -0.130400
     13 C13          5.7030     1.1240     6.4950 c3         1 2LX       0.139400
     14 O14          4.8500     0.5440     7.4840 os         1 2LX      -0.418600
     15 C15          4.3870    -0.7680     7.1570 c3         1 2LX       0.139400
     16 C16          3.5650    -0.7110     5.8660 c3         1 2LX      -0.130400
     17 O17          1.5320    -0.0020     2.2200 o          1 2LX      -0.587100
     18 H1          -0.3610    -0.8850     0.5100 h1         1 2LX       0.040700
     19 H2          -0.3610     0.0010    -1.0210 h1         1 2LX       0.040700
     20 H3          -0.3610     0.8840     0.5110 h1         1 2LX       0.040700
     21 H4           1.9650    -0.0000    -0.8670 hn         1 2LX       0.309500
     22 H5           3.7790     0.0030    -0.9820 ha         1 2LX       0.128000
     23 H6           6.2390     0.0050    -0.9720 ha         1 2LX       0.133000
     24 H7           7.4710     0.0020     1.1590 ha         1 2LX       0.132000
     25 H8           6.2570     0.0030     3.2990 ha         1 2LX       0.143000
     26 H9           5.2760    -0.7740     4.5630 h1         1 2LX       0.043700
     27 H10          5.5930     1.6570     4.4150 hc         1 2LX       0.067200
     28 H11          4.0910     1.9230     5.3180 hc         1 2LX       0.067200
     29 H12          6.5660     0.4870     6.3450 h1         1 2LX       0.048200
     30 H13          6.0230     2.1040     6.8260 h1         1 2LX       0.048200
     31 H14          3.7660    -1.1420     7.9620 h1         1 2LX       0.048200
     32 H15          5.2360    -1.4250     7.0140 h1         1 2LX       0.048200
     33 H16          3.2520    -1.7110     5.5930 hc         1 2LX       0.067200
     34 H17          2.6960    -0.0820     6.0200 hc         1 2LX       0.067200
@<TRIPOS>BOND
     1    13    12 1   
     2    13    14 1   
     3    12    11 1   
     4    11    10 1   
     5    11    16 1   
     6    14    15 1   
     7    10     9 1   
     8     1     2 1   
     9     2     3 1   
    10     9     8 ar  
    11     9     4 ar  
    12     8     7 ar  
    13     3     4 1   
    14     3    17 2   
    15     4     5 ar  
    16    15    16 1   
    17     7     6 ar  
    18     5     6 ar  
    19     1    18 1   
    20     1    19 1   
    21     1    20 1   
    22     2    21 1   
    23     5    22 1   
    24     6    23 1   
    25     7    24 1   
    26     8    25 1   
    27    11    26 1   
    28    12    27 1   
    29    12    28 1   
    30    13    29 1   
    31    13    30 1   
    32    15    31 1   
    33    15    32 1   
    34    16    33 1   
    35    16    34 1   
@<TRIPOS>SUBSTRUCTURE
     1 2LX         1 TEMP              0 ****  ****    0 ROOT
