@<TRIPOS>MOLECULE
2LX
   34    35     1     0     0
SMALL
bcc


@<TRIPOS>ATOM
      1 C01          0.0000     0.0000     0.0000 c3         1 2LX       0.090300
      2 N02          1.4650     0.0000     0.0000 ns         1 2LX      -0.207900
      3 C03          2.1400     0.0000     1.1660 c          1 2LX       0.598700
      4 C04          3.6150     0.0010     1.1660 ca         1 2LX      -0.201600
      5 C05          4.3170     0.0030    -0.0420 ca         1 2LX      -0.043000
      6 C06          5.6950     0.0040    -0.0350 ca         1 2LX      -0.158000
      7 C07          6.3880     0.0030     1.1640 ca         1 2LX      -0.030000
      8 C08          5.7070     0.0020     2.3650 ca         1 2LX      -0.237000
      9 C09          4.3200     0.0060     2.3770 ca         1 2LX       0.218100
     10 O10          3.6490     0.0040     3.5570 os         1 2LX      -0.246900
     11 C11          4.4300    -0.1220     4.7460 c3         1 2LX       0.159100
     12 C12          4.9340     1.2590     5.1780 c3         1 2LX      -0.087900
     13 C13          5.7030     1.1240     6.4950 c3         1 2LX       0.219900
     14 O14          4.8500     0.5440     7.4840 os         1 2LX      -0.407600
     15 C15          4.3870    -0.7680     7.1570 c3         1 2LX       0.219900
     16 C16          3.5650    -0.7110     5.8660 c3         1 2LX      -0.087900
     17 O17          1.5320    -0.0020     2.2200 o          1 2LX      -0.633100
     18 H1          -0.3610    -0.8850     0.5100 h1         1 2LX       0.008033
     19 H2          -0.3610     0.0010    -1.0210 h1         1 2LX       0.008033
     20 H3          -0.3610     0.8840     0.5110 h1         1 2LX       0.008033
     21 H4           1.9650    -0.0000    -0.8670 hn         1 2LX       0.173500
     22 H5           3.7790     0.0030    -0.9820 ha         1 2LX       0.101000
     23 H6           6.2390     0.0050    -0.9720 ha         1 2LX       0.107000
     24 H7           7.4710     0.0020     1.1590 ha         1 2LX       0.100000
     25 H8           6.2570     0.0030     3.2990 ha         1 2LX       0.130000
     26 H9           5.2760    -0.7740     4.5630 h1         1 2LX       0.018700
     27 H10          5.5930     1.6570     4.4150 hc         1 2LX       0.037700
     28 H11          4.0910     1.9230     5.3180 hc         1 2LX       0.037700
     29 H12          6.5660     0.4870     6.3450 h1         1 2LX       0.006950
     30 H13          6.0230     2.1040     6.8260 h1         1 2LX       0.006950
     31 H14          3.7660    -1.1420     7.9620 h1         1 2LX       0.006950
     32 H15          5.2360    -1.4250     7.0140 h1         1 2LX       0.006950
     33 H16          3.2520    -1.7110     5.5930 hc         1 2LX       0.037700
     34 H17          2.6960    -0.0820     6.0200 hc         1 2LX       0.037700
@<TRIPOS>BOND
     1     1     2 1   
     2     1    18 1   
     3     1    19 1   
     4     1    20 1   
     5     2     3 1   
     6     2    21 1   
     7     3     4 1   
     8     3    17 2   
     9     4     5 ar  
    10     4     9 ar  
    11     5     6 ar  
    12     5    22 1   
    13     6     7 ar  
    14     6    23 1   
    15     7     8 ar  
    16     7    24 1   
    17     8     9 ar  
    18     8    25 1   
    19     9    10 1   
    20    10    11 1   
    21    11    12 1   
    22    11    16 1   
    23    11    26 1   
    24    12    13 1   
    25    12    27 1   
    26    12    28 1   
    27    13    14 1   
    28    13    29 1   
    29    13    30 1   
    30    14    15 1   
    31    15    16 1   
    32    15    31 1   
    33    15    32 1   
    34    16    33 1   
    35    16    34 1   
@<TRIPOS>SUBSTRUCTURE
     1 2LX         1 TEMP              0 ****  ****    0 ROOT
