@<TRIPOS>MOLECULE
molecule
   22    23     1     0     0
SMALL
bcc


@<TRIPOS>ATOM
      1 C01          0.0000     0.0000     0.0000 c3         1 2LY       0.107300
      2 N02          1.4650     0.0000     0.0000 ns         1 2LY      -0.591900
      3 C03          2.1380     0.0000     1.1680 c          1 2LY       0.707700
      4 C04          3.5550     0.0000     1.1690 cc         1 2LY      -0.133700
      5 C05          4.3440    -0.0060     2.2920 cc         1 2LY       0.128100
      6 C06          5.7160    -0.0090     2.0180 cc         1 2LY       0.036100
      7 C07          6.0240    -0.0070     0.7120 cd         1 2LY      -0.069100
      8 S08          4.5660    -0.0010    -0.2680 ss         1 2LY      -0.120800
      9 O09          6.6520    -0.0090     3.0350 os         1 2LY      -0.306900
     10 C10          6.1340     0.3670     4.3180 c3         1 2LY       0.088400
     11 C11          4.8260    -0.3900     4.5740 c3         1 2LY       0.093400
     12 O12          3.8630    -0.0110     3.5810 os         1 2LY      -0.266900
     13 O13          1.5300     0.0010     2.2220 o          1 2LY      -0.586100
     14 H1          -0.3610    -0.8830     0.5140 h1         1 2LY       0.041700
     15 H2          -0.3610     0.8860     0.5070 h1         1 2LY       0.041700
     16 H3          -0.3610    -0.0040    -1.0210 h1         1 2LY       0.041700
     17 H4           1.9650     0.0350    -0.8660 hn         1 2LY       0.309500
     18 H5           7.0320    -0.0100     0.3170 h4         1 2LY       0.186000
     19 H6           6.8540     0.1140     5.0870 h1         1 2LY       0.070200
     20 H7           5.9420     1.4340     4.3310 h1         1 2LY       0.070200
     21 H8           5.0220    -1.4500     4.4680 h1         1 2LY       0.076200
     22 H9           4.4460    -0.0920     5.5440 h1         1 2LY       0.076200
@<TRIPOS>BOND
     1    10     9 1   
     2    10    11 1   
     3     9     6 1   
     4     6     5 1   
     5     6     7 2   
     6    12     5 1   
     7    12    11 1   
     8     5     4 2   
     9     7     8 1   
    10     2     1 1   
    11     2     3 1   
    12     4     8 1   
    13     4     3 1   
    14     3    13 2   
    15     1    14 1   
    16     1    15 1   
    17     1    16 1   
    18     2    17 1   
    19     7    18 1   
    20    10    19 1   
    21    10    20 1   
    22    11    21 1   
    23    11    22 1   
@<TRIPOS>SUBSTRUCTURE
     1 2LY         1 TEMP              0 ****  ****    0 ROOT
