@<TRIPOS>MOLECULE
2LY
   22    23     1     0     0
SMALL
bcc


@<TRIPOS>ATOM
      1 C01          0.0000     0.0000     0.0000 c3         1 2LY       0.089300
      2 N02          1.4650     0.0000     0.0000 ns         1 2LY      -0.200900
      3 C03          2.1380     0.0000     1.1680 c          1 2LY       0.632700
      4 C04          3.5550     0.0000     1.1690 cc         1 2LY      -0.108700
      5 C05          4.3440    -0.0060     2.2920 cd         1 2LY       0.148100
      6 C06          5.7160    -0.0090     2.0180 cd         1 2LY       0.044100
      7 C07          6.0240    -0.0070     0.7120 cc         1 2LY       0.001900
      8 S08          4.5660    -0.0010    -0.2680 ss         1 2LY      -0.248800
      9 O09          6.6520    -0.0090     3.0350 os         1 2LY      -0.285900
     10 C10          6.1340     0.3670     4.3180 c3         1 2LY       0.161400
     11 C11          4.8260    -0.3900     4.5740 c3         1 2LY       0.160400
     12 O12          3.8630    -0.0110     3.5810 os         1 2LY      -0.242900
     13 O13          1.5300     0.0010     2.2220 o          1 2LY      -0.634100
     14 H1          -0.3610    -0.8830     0.5140 h1         1 2LY       0.008367
     15 H2          -0.3610     0.8860     0.5070 h1         1 2LY       0.008367
     16 H3          -0.3610    -0.0040    -1.0210 h1         1 2LY       0.008367
     17 H4           1.9650     0.0350    -0.8660 hn         1 2LY       0.176500
     18 H5           7.0320    -0.0100     0.3170 h4         1 2LY       0.160000
     19 H6           6.8540     0.1140     5.0870 h1         1 2LY       0.027700
     20 H7           5.9420     1.4340     4.3310 h1         1 2LY       0.027700
     21 H8           5.0220    -1.4500     4.4680 h1         1 2LY       0.033200
     22 H9           4.4460    -0.0920     5.5440 h1         1 2LY       0.033200
@<TRIPOS>BOND
     1     1     2 1   
     2     1    14 1   
     3     1    15 1   
     4     1    16 1   
     5     2     3 1   
     6     2    17 1   
     7     3     4 1   
     8     3    13 2   
     9     4     5 2   
    10     4     8 1   
    11     5     6 1   
    12     5    12 1   
    13     6     7 2   
    14     6     9 1   
    15     7     8 1   
    16     7    18 1   
    17     9    10 1   
    18    10    11 1   
    19    10    19 1   
    20    10    20 1   
    21    11    12 1   
    22    11    21 1   
    23    11    22 1   
@<TRIPOS>SUBSTRUCTURE
     1 2LY         1 TEMP              0 ****  ****    0 ROOT
