@<TRIPOS>MOLECULE
2M0
   32    31     1     0     0
SMALL
bcc


@<TRIPOS>ATOM
      1 C26          0.0000     0.0000     0.0000 c3         1 2M0      -0.068600
      2 C28          4.0650     0.2520     2.8850 c3         1 2M0      -0.065700
      3 C41          1.5300     0.0000     0.0000 c3         1 2M0      -0.000400
      4 S42         -0.6050    -0.0000    -1.7100 s6         1 2M0       0.806000
      5 O43         -0.2290     1.2260    -2.3230 o          1 2M0      -0.559800
      6 O44         -0.2300    -1.2260    -2.3230 o          1 2M0      -0.559800
      7 C45         -2.4030    -0.0000    -1.4720 c3         1 2M0       0.033700
      8 C25          2.0400     0.0000     1.4420 c3         1 2M0      -0.084500
      9 C27          3.5650     0.1260     1.4440 c3         1 2M0      -0.039400
     10 C30          5.5940     0.2510     2.8950 c3         1 2M0       0.006900
     11 C29          3.5500     1.5590     3.4910 c3         1 2M0       0.006900
     12 N24          1.6510    -1.2550     2.1000 nz         1 2M0       0.050400
     13 H14         -0.3610     0.8850     0.5100 h1         1 2M0       0.060200
     14 H15         -0.3610    -0.8840     0.5110 h1         1 2M0       0.060200
     15 H16          3.6990    -0.5850     3.4680 hc         1 2M0      -0.004300
     16 H17          1.8910    -0.8840    -0.5110 hc         1 2M0       0.067700
     17 H18          1.8910     0.8850    -0.5110 hc         1 2M0       0.067700
     18 H19         -2.6930     0.8810    -0.9130 h1         1 2M0       0.068367
     19 H20         -2.6940    -0.8880    -0.9230 h1         1 2M0       0.068367
     20 H21         -2.8950     0.0050    -2.4370 h1         1 2M0       0.068367
     21 H22          1.6080     0.8370     1.9780 hx         1 2M0       0.099700
     22 H23          4.0000    -0.7540     0.9860 hc         1 2M0       0.057700
     23 H24          3.8550     1.0060     0.8830 hc         1 2M0       0.057700
     24 H25          5.9580    -0.6700     2.4570 hc         1 2M0       0.018033
     25 H26          5.9480     0.3300     3.9160 hc         1 2M0       0.018033
     26 H27          5.9600     1.0940     2.3200 hc         1 2M0       0.018033
     27 H28          2.5690     1.3960     3.9220 hc         1 2M0       0.018033
     28 H29          4.2320     1.8930     4.2630 hc         1 2M0       0.018033
     29 H30          3.4830     2.3150     2.7170 hc         1 2M0       0.018033
     30 H31          1.1590    -1.0500     2.9460 hn         1 2M0       0.231467
     31 H2           2.4710    -1.7880     2.3120 hn         1 2M0       0.231467
     32 H243         1.0590    -1.7820     1.4890 hn         1 2M0       0.231467
@<TRIPOS>BOND
     1     1     3 1   
     2     1     4 1   
     3     1    13 1   
     4     1    14 1   
     5     2     9 1   
     6     2    10 1   
     7     2    11 1   
     8     2    15 1   
     9     3     8 1   
    10     3    16 1   
    11     3    17 1   
    12     4     5 2   
    13     4     6 2   
    14     4     7 1   
    15     7    18 1   
    16     7    19 1   
    17     7    20 1   
    18     8     9 1   
    19     8    12 1   
    20     8    21 1   
    21     9    22 1   
    22     9    23 1   
    23    10    24 1   
    24    10    25 1   
    25    10    26 1   
    26    11    27 1   
    27    11    28 1   
    28    11    29 1   
    29    12    30 1   
    30    12    31 1   
    31    12    32 1   
@<TRIPOS>SUBSTRUCTURE
     1 2M0         1 TEMP              0 ****  ****    0 ROOT
