@<TRIPOS>MOLECULE
2M2
   49    52     1     0     0
SMALL
bcc


@<TRIPOS>ATOM
      1 C1          0.0150    2.2420    0.8440 c3        1 2M2     -0.134400
      2 C2          1.2980    1.5180    0.8800 cc        1 2M2      0.321600
      3 C3          2.3880    1.8090    1.8170 cc        1 2M2     -0.343600
      4 C4          3.3710    0.9010    1.4880 cd        1 2M2      0.241000
      5 C5          4.7480    0.6400    1.9680 c3        1 2M2      0.174500
      6 N6          4.9870   -0.7560    2.2630 nh        1 2M2     -0.826900
      7 C7          6.3040   -1.1710    2.5380 ca        1 2M2      0.889900
      8 N8          7.2270   -0.2230    2.9630 nb        1 2M2     -0.773000
      9 C9          8.4280   -0.7020    3.3270 ca        1 2M2      0.482200
     10 C10         8.7800   -2.0530    3.2850 ca        1 2M2     -0.460600
     11 C11         7.7870   -2.9650    2.8000 ca        1 2M2      0.703200
     12 N12         8.1560   -4.3130    2.6370 nh        1 2M2     -0.789600
     13 C13         7.1910   -5.3130    2.4280 cc        1 2M2      0.504200
     14 C14         6.2040   -5.3400    1.3600 cc        1 2M2     -0.249300
     15 C15         5.5380   -6.5650    1.5180 cd        1 2M2     -0.103600
     16 C16         4.4230   -7.1300    0.7320 c3        1 2M2     -0.015100
     17 C17         4.7940   -8.4490    0.0720 c3        1 2M2     -0.036100
     18 C18         3.6890   -8.9540   -0.7880 ca        1 2M2     -0.084300
     19 C19         2.9240  -10.0550   -0.3910 ca        1 2M2     -0.126000
     20 C20         1.8970  -10.5290   -1.2060 ca        1 2M2     -0.127000
     21 C21         1.6260   -9.9070   -2.4240 ca        1 2M2     -0.129000
     22 C22         2.3870   -8.8080   -2.8260 ca        1 2M2     -0.127000
     23 C23         3.4140   -8.3330   -2.0130 ca        1 2M2     -0.126000
     24 N24         6.1290   -7.1950    2.6230 na        1 2M2     -0.008600
     25 N26         7.0980   -6.4760    3.1760 nd        1 2M2     -0.551800
     26 N27         6.5480   -2.5320    2.4250 nb        1 2M2     -0.784000
     27 O28         2.8890    0.1100    0.4150 os        1 2M2     -0.127100
     28 N29         1.6720    0.4940    0.0840 nd        1 2M2     -0.354300
     29 H1         -0.4980    2.1390    1.8330 hc        1 2M2      0.059700
     30 H2          0.2050    3.3280    0.6510 hc        1 2M2      0.059700
     31 H3         -0.6650    1.8510    0.0470 hc        1 2M2      0.059700
     32 H4          2.3830    2.5730    2.5860 ha        1 2M2      0.178000
     33 H5          4.9140    1.2360    2.9130 h1        1 2M2      0.077700
     34 H6          5.4670    1.0280    1.1830 h1        1 2M2      0.077700
     35 H7          4.4320   -1.4040    1.7410 hn        1 2M2      0.441800
     36 H8          9.1520    0.0600    3.6730 h4        1 2M2      0.025100
     37 H9          9.7730   -2.3900    3.5960 ha        1 2M2      0.153000
     38 H10         8.9140   -4.5850    3.2340 hn        1 2M2      0.432800
     39 H11         6.0210   -4.5660    0.6230 ha        1 2M2      0.180000
     40 H12         4.1340   -6.3850   -0.0580 hc        1 2M2      0.066700
     41 H13         3.5260   -7.2790    1.3930 hc        1 2M2      0.066700
     42 H14         5.7160   -8.3050   -0.5540 hc        1 2M2      0.051200
     43 H15         5.0430   -9.2080    0.8610 hc        1 2M2      0.051200
     44 H16         3.1340  -10.5520    0.5680 ha        1 2M2      0.131000
     45 H17         1.3000  -11.3960   -0.8870 ha        1 2M2      0.132500
     46 H18         0.8160  -10.2810   -3.0670 ha        1 2M2      0.132000
     47 H19         2.1760   -8.3150   -3.7870 ha        1 2M2      0.132500
     48 H20         4.0140   -7.4680   -2.3320 ha        1 2M2      0.131000
     49 H21         5.9100   -8.0930    2.9830 hn        1 2M2      0.321700
@<TRIPOS>BOND
     1    1    2 1
     2    1   29 1
     3    1   30 1
     4    1   31 1
     5    2    3 1
     6    2   28 2
     7    3    4 2
     8    3   32 1
     9    4    5 1
    10    4   27 1
    11    5    6 1
    12    5   33 1
    13    5   34 1
    14    6    7 1
    15    6   35 1
    16    7    8 ar
    17    7   26 ar
    18    8    9 ar
    19    9   10 ar
    20    9   36 1
    21   10   11 ar
    22   10   37 1
    23   11   12 1
    24   11   26 ar
    25   12   13 1
    26   12   38 1
    27   13   14 1
    28   13   25 2
    29   14   15 2
    30   14   39 1
    31   15   16 1
    32   15   24 1
    33   16   17 1
    34   16   40 1
    35   16   41 1
    36   17   18 1
    37   17   42 1
    38   17   43 1
    39   18   19 ar
    40   18   23 ar
    41   19   20 ar
    42   19   44 1
    43   20   21 ar
    44   20   45 1
    45   21   22 ar
    46   21   46 1
    47   22   23 ar
    48   22   47 1
    49   23   48 1
    50   24   25 1
    51   24   49 1
    52   27   28 1
@<TRIPOS>SUBSTRUCTURE
     1 2M2         1 TEMP              0 ****  ****    0 ROOT
