@<TRIPOS>MOLECULE
2M3
   48    52     1     0     0
SMALL
bcc


@<TRIPOS>ATOM
      1 C1           0.0000     0.0000     0.0000 ca         1 2M3      -0.251300
      2 C2           1.3860     0.0000     0.0000 ca         1 2M3       0.416200
      3 C4          -0.6790     0.0000     1.2040 ca         1 2M3      -0.025000
      4 C5           0.0720     0.0010     2.3810 ca         1 2M3      -0.206100
      5 C6           1.4790     0.0010     2.3060 ca         1 2M3       0.232800
      6 C8           0.9020     0.0030     4.4780 cc         1 2M3      -0.237300
      7 C11         -1.6430     0.0040     4.4060 c3         1 2M3       0.036500
      8 C12         -2.4690    -1.2090     3.9020 c3         1 2M3      -0.038400
      9 C15         -2.4790     1.1930     3.8710 c3         1 2M3       0.048000
     10 C17         -6.3410     1.0000     4.1370 cx         1 2M3      -0.278300
     11 C19         -6.7920     0.3380     2.8610 ca         1 2M3       0.415600
     12 C21         -7.7920    -1.4580     1.8210 ca         1 2M3       0.402200
     13 C23         -6.9990     0.3540     0.4830 ca         1 2M3      -0.066000
     14 C24         -6.5800     0.9720     1.6520 ca         1 2M3      -0.206300
     15 N3           2.0750     0.0000     1.1220 nb         1 2M3      -0.577000
     16 N7           1.9500     0.0020     3.5960 na         1 2M3       0.267900
     17 C9          -0.2600     0.0030     3.8070 cd         1 2M3      -0.142400
     18 C10          1.0350     0.0050     5.9790 c3         1 2M3       0.095100
     19 C13         -3.9230    -0.7090     4.0170 c3         1 2M3       0.041000
     20 N14         -3.8820     0.7600     4.0110 n          1 2M3      -0.155800
     21 O18         -4.7900     2.7780     4.1860 o          1 2M3      -0.647100
     22 N20         -7.3800    -0.8420     2.9110 nb         1 2M3      -0.579000
     23 C22         -7.6180    -0.8830     0.5750 ca         1 2M3      -0.224300
     24 C25         -6.8340     0.4020     5.4570 cx         1 2M3      -0.043900
     25 C26         -7.3970     1.7360     4.9630 cx         1 2M3      -0.043900
     26 H1          -0.5460     0.0000    -0.9350 ha         1 2M3       0.113000
     27 H2           1.9150    -0.0000    -0.9450 h4         1 2M3      -0.022900
     28 H4          -1.7620     0.0000     1.2340 ha         1 2M3       0.111000
     29 H11         -1.6030     0.0180     5.4890 hc         1 2M3       0.037700
     30 H12         -2.3100    -2.0700     4.5400 hc         1 2M3       0.030200
     31 H12A        -2.2230    -1.4360     2.8720 hc         1 2M3       0.030200
     32 H15         -2.2980     2.0790     4.4680 h1         1 2M3       0.034200
     33 H15A        -2.2450     1.3780     2.8300 h1         1 2M3       0.034200
     34 H21         -8.2730    -2.4250     1.9020 h4         1 2M3      -0.019900
     35 H23         -6.8480     0.8280    -0.4790 ha         1 2M3       0.110000
     36 H24         -6.0930     1.9380     1.6170 ha         1 2M3       0.130000
     37 HN7          2.9170     0.0020     3.8540 hn         1 2M3       0.119700
     38 H10          2.0840    -0.0000     6.2490 hc         1 2M3       0.011367
     39 H10A         0.5620     0.8920     6.3820 hc         1 2M3       0.011367
     40 H10B         0.5530    -0.8770     6.3860 hc         1 2M3       0.011367
     41 H13         -4.3610    -1.0600     4.9430 h1         1 2M3       0.021200
     42 H13A        -4.5010    -1.0640     3.1720 h1         1 2M3       0.021200
     43 H22         -7.9580    -1.3940    -0.3170 ha         1 2M3       0.114000
     44 H25         -6.1410     0.4650     6.2870 hc         1 2M3       0.055450
     45 H25A        -7.4990    -0.4490     5.3650 hc         1 2M3       0.055450
     46 H26         -8.4060     1.7010     4.5710 hc         1 2M3       0.055450
     47 H26A        -7.0480     2.6150     5.4920 hc         1 2M3       0.055450
     48 C16         -4.9490     1.5770     4.1130 c          1 2M3       0.647100
@<TRIPOS>BOND
     1     1     2 ar  
     2     1     3 ar  
     3     1    26 1   
     4     2    15 ar  
     5     2    27 1   
     6     3     4 ar  
     7     3    28 1   
     8     4     5 ar  
     9     4    17 1   
    10     5    15 ar  
    11     5    16 1   
    12     6    16 1   
    13     6    17 2   
    14     6    18 1   
    15     7     8 1   
    16     7     9 1   
    17     7    17 1   
    18     7    29 1   
    19     8    19 1   
    20     8    30 1   
    21     8    31 1   
    22     9    20 1   
    23     9    32 1   
    24     9    33 1   
    25    10    11 1   
    26    10    24 1   
    27    10    25 1   
    28    10    48 1   
    29    11    14 ar  
    30    11    22 ar  
    31    12    22 ar  
    32    12    23 ar  
    33    12    34 1   
    34    13    14 ar  
    35    13    23 ar  
    36    13    35 1   
    37    14    36 1   
    38    16    37 1   
    39    18    38 1   
    40    18    39 1   
    41    18    40 1   
    42    19    20 1   
    43    19    41 1   
    44    19    42 1   
    45    20    48 1   
    46    21    48 2   
    47    23    43 1   
    48    24    25 1   
    49    24    44 1   
    50    24    45 1   
    51    25    46 1   
    52    25    47 1   
@<TRIPOS>SUBSTRUCTURE
     1 2M3         1 TEMP              0 ****  ****    0 ROOT
