@<TRIPOS>MOLECULE
2M7
   31    32     1     0     0
SMALL
bcc


@<TRIPOS>ATOM
      1 CAI        -0.3440   -0.2570   -0.0220 ca        1 2M7     -0.103500
      2 CAJ         1.0370   -0.3770   -0.1630 ca        1 2M7     -0.133500
      3 CAK         1.8740   -0.2030    0.9390 ca        1 2M7     -0.117000
      4 CAL         1.3280    0.0910    2.1880 ca        1 2M7     -0.133500
      5 CAM        -0.0510    0.2140    2.3410 ca        1 2M7     -0.103500
      6 CAH        -0.8980    0.0400    1.2340 ca        1 2M7      0.013000
      7 CAG        -2.2930    0.1620    1.3840 cg        1 2M7     -0.092000
      8 CAF        -3.4790    0.2710    1.5110 c1        1 2M7     -0.160100
      9 CAD        -4.9060    0.4270    1.6810 c3        1 2M7      0.218600
     10 NAE        -5.5800   -0.6750    2.3740 n3        1 2M7     -0.792200
     11 CAA        -6.6770   -1.1850    1.5370 c3        1 2M7      0.167500
     12 CAN        -7.9520   -1.4100    2.3370 c3        1 2M7     -0.071100
     13 CAB        -6.9020   -0.1860    0.3630 c3        1 2M7      0.145100
     14 OAO        -8.0550    0.5820    0.6290 oh        1 2M7     -0.585800
     15 CAC        -5.6000    0.6450    0.2980 c3        1 2M7      0.093100
     16 OAP        -5.9430    1.9960    0.0750 oh        1 2M7     -0.599800
     17 H1         -1.0020   -0.3950   -0.8920 ha        1 2M7      0.140000
     18 H2          1.4670   -0.6090   -1.1490 ha        1 2M7      0.136000
     19 H3          2.9640   -0.2990    0.8230 ha        1 2M7      0.135000
     20 H4          1.9880    0.2280    3.0580 ha        1 2M7      0.136000
     21 H5         -0.4810    0.4460    3.3260 ha        1 2M7      0.140000
     22 H6         -5.0880    1.3500    2.3180 h1        1 2M7      0.094700
     23 H7         -4.9410   -1.4130    2.6010 hn        1 2M7      0.367800
     24 H9         -6.3850   -2.1740    1.0690 h1        1 2M7      0.025700
     25 H10        -8.7540   -1.7520    1.6410 hc        1 2M7      0.046033
     26 H11        -7.7880   -2.1840    3.1230 hc        1 2M7      0.046033
     27 H12        -8.2880   -0.4630    2.8230 hc        1 2M7      0.046033
     28 H13        -7.0540   -0.7430   -0.6010 h1        1 2M7      0.045700
     29 H14        -7.9890    1.4010    0.1200 ho        1 2M7      0.424000
     30 H15        -4.9440    0.2830   -0.5380 h1        1 2M7      0.052700
     31 H16        -5.1440    2.5190    0.2200 ho        1 2M7      0.420000
@<TRIPOS>BOND
     1    1    2 ar  
     2    1    6 ar  
     3    1   17 1   
     4    2    3 ar  
     5    2   18 1   
     6    3    4 ar  
     7    3   19 1   
     8    4    5 ar  
     9    4   20 1   
    10    5    6 ar  
    11    5   21 1   
    12    6    7 1   
    13    7    8 3   
    14    8    9 1   
    15    9   10 1   
    16    9   15 1   
    17    9   22 1   
    18   10   11 1   
    19   10   23 1   
    20   11   12 1   
    21   11   13 1   
    22   11   24 1   
    23   12   25 1   
    24   12   26 1   
    25   12   27 1   
    26   13   14 1   
    27   13   15 1   
    28   13   28 1   
    29   14   29 1   
    30   15   16 1   
    31   15   30 1   
    32   16   31 1   
@<TRIPOS>SUBSTRUCTURE
     1 2M7         1 TEMP              0 ****  ****    0 ROOT
