@<TRIPOS>MOLECULE
2M8
   33    33     1     0     0
SMALL
bcc


@<TRIPOS>ATOM
      1 C1         -0.4030    0.1890    0.5250 c3        1 2M8      0.316900
      2 O3A        -1.2030   -0.7460    1.2240 os        1 2M8     -0.443600
      3 C22        -2.0830   -1.4980    0.3770 c3        1 2M8     -0.011900
      4 C23        -2.8550   -2.4400    1.3010 c3        1 2M8      0.168400
      5 O13        -2.0910   -3.5020    1.8230 oh        1 2M8     -0.631800
      6 C21        -1.3380   -2.2370   -0.7620 c         1 2M8      0.900600
      7 O1A        -0.5620   -1.5640   -1.5040 o         1 2M8     -0.842800
      8 O1B        -1.5600   -3.4690   -0.9180 o         1 2M8     -0.842800
      9 C2          1.0430   -0.3480    0.4360 c3        1 2M8      0.098100
     10 O2          1.6570    0.1630   -0.7370 oh        1 2M8     -0.643800
     11 C3          1.9310    0.0090    1.6300 c3        1 2M8      0.113100
     12 O3          3.3130   -0.0830    1.3350 oh        1 2M8     -0.619800
     13 C4          1.6220    1.4150    2.1680 c3        1 2M8      0.087100
     14 O4          2.3380    1.6760    3.3660 oh        1 2M8     -0.611800
     15 C5          0.1210    1.5000    2.4700 c3        1 2M8      0.109100
     16 C6         -0.2560    2.8600    3.0570 c3        1 2M8      0.142400
     17 O6         -1.6190    2.9160    3.4230 oh        1 2M8     -0.615800
     18 O5         -0.5960    1.3940    1.2410 os        1 2M8     -0.439600
     19 H1         -0.7920    0.4150   -0.5120 h2        1 2M8      0.117700
     20 H2          0.9690   -1.4730    0.3560 h1        1 2M8      0.096700
     21 H22        -2.8110   -0.7800   -0.0970 h1        1 2M8      0.027700
     22 H231       -3.2240   -1.8820    2.2030 h1        1 2M8      0.029200
     23 H232       -3.7220   -2.8510    0.7160 h1        1 2M8      0.029200
     24 H13        -1.6560   -3.9390    1.0730 ho        1 2M8      0.440000
     25 HA          1.2150   -0.2870   -1.4770 ho        1 2M8      0.459000
     26 H3          1.7620   -0.7450    2.4520 h1        1 2M8      0.086700
     27 HB          3.4470    0.2620    0.4430 ho        1 2M8      0.424000
     28 H4          1.9060    2.1870    1.4000 h1        1 2M8      0.052700
     29 HC          3.2080    1.2710    3.2550 ho        1 2M8      0.413000
     30 H5         -0.1910    0.6710    3.1630 h1        1 2M8      0.075700
     31 H61C        0.3220    3.0330    4.0030 h1        1 2M8      0.049200
     32 H62C       -0.0330    3.6720    2.3130 h1        1 2M8      0.049200
     33 H6         -2.1230    2.5330    2.6920 ho        1 2M8      0.417000
@<TRIPOS>BOND
     1    1    2 1   
     2    1    9 1   
     3    1   18 1   
     4    1   19 1   
     5    2    3 1   
     6    3    4 1   
     7    3    6 1   
     8    3   21 1   
     9    4    5 1   
    10    4   22 1   
    11    4   23 1   
    12    5   24 1   
    13    6    7 1   
    14    6    8 1   
    15    9   10 1   
    16    9   11 1   
    17    9   20 1   
    18   10   25 1   
    19   11   12 1   
    20   11   13 1   
    21   11   26 1   
    22   12   27 1   
    23   13   14 1   
    24   13   15 1   
    25   13   28 1   
    26   14   29 1   
    27   15   16 1   
    28   15   18 1   
    29   15   30 1   
    30   16   17 1   
    31   16   31 1   
    32   16   32 1   
    33   17   33 1   
@<TRIPOS>SUBSTRUCTURE
     1 2M8         1 TEMP              0 ****  ****    0 ROOT
