@<TRIPOS>MOLECULE
molecule
   33    33     1     0     0
SMALL
bcc


@<TRIPOS>ATOM
      1 C1           0.0000     0.0000     0.0000 c3         1 2M8       0.325900
      2 O3A         -0.4770    -1.1940     0.6250 os         1 2M8      -0.426600
      3 C22         -1.8830    -1.4040     0.4790 c3         1 2M8       0.035100
      4 C23         -2.4120    -2.1740     1.6900 c3         1 2M8       0.164400
      5 O13         -1.8340    -3.4810     1.7150 oh         1 2M8      -0.585800
      6 C21         -2.1440    -2.2000    -0.7740 c          1 2M8       0.884600
      7 O1A         -1.2180    -2.6290    -1.4220 o          1 2M8      -0.840800
      8 O1B         -3.4050    -2.4340    -1.1700 o          1 2M8      -0.840800
      9 C2           1.5310     0.0000     0.0000 c3         1 2M8       0.114100
     10 O2           2.0090     1.1680    -0.6700 oh         1 2M8      -0.595800
     11 C3           2.0330     0.0000     1.4470 c3         1 2M8       0.126100
     12 O3           3.4600     0.0750     1.4580 oh         1 2M8      -0.613800
     13 C4           1.4520     1.2140     2.1780 c3         1 2M8       0.112100
     14 O4           1.8550     1.1850     3.5490 oh         1 2M8      -0.613800
     15 C5          -0.0770     1.1670     2.0940 c3         1 2M8       0.151100
     16 C6          -0.6640     2.4080     2.7700 c3         1 2M8       0.149400
     17 O6          -2.0890     2.3080     2.7950 oh         1 2M8      -0.592800
     18 O5          -0.4750     1.1380     0.7220 os         1 2M8      -0.422600
     19 H1          -0.3590     0.0470    -1.0210 h2         1 2M8       0.104700
     20 H2           1.8910    -0.8870    -0.5060 h1         1 2M8       0.066700
     21 H22         -2.3860    -0.4470     0.4110 h1         1 2M8       0.055700
     22 H231        -3.4900    -2.2580     1.6220 h1         1 2M8       0.015700
     23 H232        -2.1480    -1.6450     2.5980 h1         1 2M8       0.015700
     24 H13         -2.2830    -4.0120     2.3510 ho         1 2M8       0.371000
     25 HA           2.4420     0.9160    -1.4690 ho         1 2M8       0.399000
     26 H3           1.7090    -0.9080     1.9420 h1         1 2M8       0.076700
     27 HB           3.8150    -0.7430     1.7640 ho         1 2M8       0.398000
     28 H4           1.8100     2.1230     1.7100 h1         1 2M8       0.059700
     29 HC           2.5240     1.8330     3.6940 ho         1 2M8       0.398000
     30 H5          -0.4360     0.2740     2.5920 h1         1 2M8       0.076700
     31 H61C        -0.2890     2.4780     3.7840 h1         1 2M8       0.023200
     32 H62C        -0.3730     3.2920     2.2160 h1         1 2M8       0.023200
     33 H6          -2.4480     3.0480     3.2560 ho         1 2M8       0.387000
@<TRIPOS>BOND
     1     1     2 1   
     2     1     9 1   
     3     1    18 1   
     4     2     3 1   
     5     3     4 1   
     6     3     6 1   
     7     4     5 1   
     8     6     7 1   
     9     6     8 1   
    10     9    10 1   
    11     9    11 1   
    12    11    12 1   
    13    11    13 1   
    14    13    14 1   
    15    13    15 1   
    16    15    16 1   
    17    15    18 1   
    18    16    17 1   
    19     1    19 1   
    20     9    20 1   
    21     3    21 1   
    22     4    22 1   
    23     4    23 1   
    24     5    24 1   
    25    10    25 1   
    26    11    26 1   
    27    12    27 1   
    28    13    28 1   
    29    14    29 1   
    30    15    30 1   
    31    16    31 1   
    32    16    32 1   
    33    17    33 1   
@<TRIPOS>SUBSTRUCTURE
     1 2M8         1 TEMP              0 ****  ****    0 ROOT
