@<TRIPOS>MOLECULE
molecule
   39    42     1     0     0
SMALL
bcc


@<TRIPOS>ATOM
      1 OAJ          0.0000     0.0000     0.0000 o          1 2M9      -0.728533
      2 SBD          1.5220     0.0000     0.0000 s6         1 2M9       1.343100
      3 OAC          1.9230     0.0000     1.3630 o          1 2M9      -0.728533
      4 OAD          1.9230    -0.9980    -0.9290 o          1 2M9      -0.728533
      5 CAT          2.0420     1.5440    -0.6720 ca         1 2M9      -0.271500
      6 CAM          2.4500     1.6060    -2.0810 ca         1 2M9       0.030000
      7 CAS          2.8510     2.7180    -2.6580 ca         1 2M9      -0.282500
      8 SBC          3.3260     2.7180    -4.3560 s6         1 2M9       1.345100
      9 OAA          4.3150     3.7280    -4.4960 o          1 2M9      -0.728867
     10 OAB          3.5460     1.3600    -4.7110 o          1 2M9      -0.728867
     11 OAI          2.1210     3.1820    -5.1600 o          1 2M9      -0.728867
     12 CAW          2.9000     3.9640    -1.8730 ca         1 2M9       0.036000
     13 CAO          3.2900     5.1080    -2.3830 ca         1 2M9      -0.131000
     14 CAP          3.3150     6.3220    -1.5410 ca         1 2M9      -0.111000
     15 CAX          2.0500     2.6040     0.1020 ca         1 2M9       0.065000
     16 CBA          2.4900     3.8950    -0.4580 ca         1 2M9      -0.042000
     17 CBB          2.5130     4.9670     0.2860 ca         1 2M9      -0.021000
     18 CAY          2.9490     6.2570    -0.2830 ca         1 2M9      -0.026000
     19 CAQ          1.6350     2.5380     1.5130 ca         1 2M9      -0.121000
     20 CAR          1.6530     3.6240     2.2630 ca         1 2M9      -0.148000
     21 CAZ          2.1050     4.9070     1.7010 ca         1 2M9      -0.041000
     22 CAV          2.1400     6.0040     2.4220 ca         1 2M9       0.086100
     23 OBF          1.7630     5.9470     3.7290 os         1 2M9      -0.348900
     24 CAG          1.8180     7.1660     4.4730 c3         1 2M9       0.134700
     25 CAN          2.5760     7.2890     1.8610 ca         1 2M9      -0.107000
     26 CAU          2.9530     7.4300     0.6090 ca         1 2M9      -0.218500
     27 SBE          3.4610     9.0040     0.0030 s6         1 2M9       1.339100
     28 OAK          4.8290     9.1490     0.3610 o          1 2M9      -0.723867
     29 OAE          2.9940     9.0900    -1.3370 o          1 2M9      -0.723867
     30 OAF          2.6970    10.0580     0.7920 o          1 2M9      -0.723867
     31 H1           2.4200     0.6970    -2.6700 ha         1 2M9       0.164000
     32 H2           3.5590     5.1700    -3.4310 ha         1 2M9       0.189000
     33 H3           3.6590     7.2610    -1.9570 ha         1 2M9       0.160000
     34 H4           1.3080     1.5960     1.9360 ha         1 2M9       0.198000
     35 H5           1.3350     3.5710     3.2970 ha         1 2M9       0.115000
     36 H6           2.8470     7.4980     4.5460 h1         1 2M9       0.024367
     37 H7           1.4210     7.0000     5.4670 h1         1 2M9       0.024367
     38 H8           1.2290     7.9230     3.9710 h1         1 2M9       0.024367
     39 H9           2.9660     8.1230     2.4320 ha         1 2M9       0.134000
@<TRIPOS>BOND
     1     9     8 1
     2     4     2 1
     3    10     8 1
     4     8    11 1
     5     8     7 1
     6     6     7 ar
     7     6     5 ar
     8     3     2 1
     9     2     5 1
    10     2     1 1
    11     7    12 ar
    12     5    15 ar
    13    12    13 ar
    14    12    16 ar
    15    13    14 ar
    16    15    16 ar
    17    15    19 ar
    18    16    17 ar
    19    19    20 ar
    20    14    18 ar
    21    17    18 ar
    22    17    21 ar
    23    20    21 ar
    24    18    26 ar
    25    21    22 ar
    26    29    27 1
    27    26    27 1
    28    26    25 ar
    29    22    25 ar
    30    22    23 1
    31    27    28 1
    32    27    30 1
    33    23    24 1
    34     6    31 1
    35    13    32 1
    36    14    33 1
    37    19    34 1
    38    20    35 1
    39    24    36 1
    40    24    37 1
    41    24    38 1
    42    25    39 1
@<TRIPOS>SUBSTRUCTURE
     1 2M9         1 TEMP              0 ****  ****    0 ROOT
