@<TRIPOS>MOLECULE
2M9
   39    42     1     0     0
SMALL
bcc


@<TRIPOS>ATOM
      1 OAJ         0.2020    0.0770    0.4700 o         1 2M9     -0.757867
      2 SBD         1.5180   -0.1060   -0.0460 s6        1 2M9      1.449100
      3 OAC         2.4340   -0.4390    0.9940 o         1 2M9     -0.757867
      4 OAD         1.5510   -1.0420   -1.1120 o         1 2M9     -0.757867
      5 CAT         2.0280    1.4460   -0.6950 ca        1 2M9     -0.297500
      6 CAM         2.3730    1.5490   -2.0430 ca        1 2M9      0.019000
      7 CAS         2.7840    2.7410   -2.6470 ca        1 2M9     -0.286500
      8 SBC         3.1830    2.7250   -4.3660 s6        1 2M9      1.449100
      9 OAA         4.5250    3.1810   -4.4810 o         1 2M9     -0.754867
     10 OAB         3.0340    1.3840   -4.8090 o         1 2M9     -0.754867
     11 OAI         2.2670    3.6050   -5.0050 o         1 2M9     -0.754867
     12 CAW         2.8550    3.8960   -1.8550 ca        1 2M9      0.073000
     13 CAO         3.2590    5.1730   -2.3950 ca        1 2M9     -0.110000
     14 CAP         3.3260    6.2910   -1.6310 ca        1 2M9     -0.137000
     15 CAX         2.1030    2.6060    0.0940 ca        1 2M9      0.062000
     16 CBA         2.5170    3.8420   -0.4740 ca        1 2M9     -0.068000
     17 CBB         2.5910    5.0290    0.3360 ca        1 2M9     -0.019000
     18 CAY         3.0030    6.2750   -0.2260 ca        1 2M9      0.047000
     19 CAQ         1.7620    2.5800    1.4950 ca        1 2M9     -0.099000
     20 CAR         1.8290    3.6960    2.2620 ca        1 2M9     -0.148000
     21 CAZ         2.2420    4.9540    1.7080 ca        1 2M9     -0.025000
     22 CAV         2.3210    6.1300    2.4810 ca        1 2M9      0.054100
     23 OBF         2.0060    6.0040    3.8370 os        1 2M9     -0.348900
     24 CAG         1.4910    7.1840    4.4330 c3        1 2M9      0.124700
     25 CAN         2.7340    7.3350    1.9210 ca        1 2M9     -0.127000
     26 CAU         3.0790    7.4280    0.5700 ca        1 2M9     -0.246500
     27 SBE         3.6070    9.0370    0.0510 s6        1 2M9      1.449100
     28 OAK         5.0240    9.0100    0.0290 o         1 2M9     -0.753533
     29 OAE         3.0330    9.3030   -1.2160 o         1 2M9     -0.753533
     30 OAF         3.1160    9.9300    1.0540 o         1 2M9     -0.753533
     31 H1          2.3190    0.6340   -2.6720 ha        1 2M9      0.174000
     32 H2          3.5130    5.2050   -3.4700 ha        1 2M9      0.160000
     33 H3          3.6180    7.2610   -2.0720 ha        1 2M9      0.159000
     34 H4          1.4430    1.6120    1.9230 ha        1 2M9      0.159000
     35 H5          1.5700    3.6730    3.3300 ha        1 2M9      0.117000
     36 H6          1.0050    6.8280    5.3770 h1        1 2M9      0.023367
     37 H7          0.7450    7.6880    3.7720 h1        1 2M9      0.023367
     38 H8          2.3250    7.8890    4.6730 h1        1 2M9      0.023367
     39 H9          2.7850    8.2470    2.5410 ha        1 2M9      0.147000
@<TRIPOS>BOND
     1    1    2 1   
     2    2    3 1   
     3    2    4 1   
     4    2    5 1   
     5    5    6 ar  
     6    5   15 ar  
     7    6    7 ar  
     8    6   31 1   
     9    7    8 1   
    10    7   12 ar  
    11    8    9 1   
    12    8   10 1   
    13    8   11 1   
    14   12   13 ar  
    15   12   16 ar  
    16   13   14 ar  
    17   13   32 1   
    18   14   18 ar  
    19   14   33 1   
    20   15   16 ar  
    21   15   19 ar  
    22   16   17 ar  
    23   17   18 ar  
    24   17   21 ar  
    25   18   26 ar  
    26   19   20 ar  
    27   19   34 1   
    28   20   21 ar  
    29   20   35 1   
    30   21   22 ar  
    31   22   23 1   
    32   22   25 ar  
    33   23   24 1   
    34   24   36 1   
    35   24   37 1   
    36   24   38 1   
    37   25   26 ar  
    38   25   39 1   
    39   26   27 1   
    40   27   28 1   
    41   27   29 1   
    42   27   30 1   
@<TRIPOS>SUBSTRUCTURE
     1 2M9         1 TEMP              0 ****  ****    0 ROOT
