@<TRIPOS>MOLECULE
2MB
   15    14     1     0     0
SMALL
bcc


@<TRIPOS>ATOM
      1 C4         -0.0060    0.0330   -0.0950 c3        1 2MB     -0.060900
      2 C3          1.4660    0.0020   -0.0050 c2        1 2MB     -0.178200
      3 C2          2.1510   -0.0080    1.1490 c2        1 2MB     -0.122400
      4 C1          1.4800    0.0000    2.4720 c3        1 2MB     -0.057900
      5 C2'         3.6330   -0.0350    1.1790 c3        1 2MB     -0.057900
      6 H4C1       -0.3780    1.0800    0.0420 hc        1 2MB      0.039367
      7 H4C2       -0.3510   -0.3330   -1.0930 hc        1 2MB      0.039367
      8 H4C3       -0.4740   -0.6050    0.6960 hc        1 2MB      0.039367
      9 H3          2.0020   -0.0050   -0.9690 ha        1 2MB      0.119000
     10 H1C1        2.2040    0.2280    3.2910 hc        1 2MB      0.040367
     11 H1C2        0.6650    0.7660    2.4950 hc        1 2MB      0.040367
     12 H1C3        1.0200   -1.0000    2.6760 hc        1 2MB      0.040367
     13 H2'1        4.0240    0.8920    1.6690 hc        1 2MB      0.040367
     14 H2'2        4.0660   -0.0990    0.1500 hc        1 2MB      0.040367
     15 H2'3        3.9900   -0.9170    1.7680 hc        1 2MB      0.040367
@<TRIPOS>BOND
     1    1    2 1   
     2    1    6 1   
     3    1    7 1   
     4    1    8 1   
     5    2    3 2   
     6    2    9 1   
     7    3    4 1   
     8    3    5 1   
     9    4   10 1   
    10    4   11 1   
    11    4   12 1   
    12    5   13 1   
    13    5   14 1   
    14    5   15 1   
@<TRIPOS>SUBSTRUCTURE
     1 2MB         1 TEMP              0 ****  ****    0 ROOT
