@<TRIPOS>MOLECULE
molecule
   15    14     1     0     0
SMALL
bcc


@<TRIPOS>ATOM
      1 C4           0.0000     0.0000     0.0000 c3         1 2MB      -0.096900
      2 C3           1.5070     0.0000     0.0000 c2         1 2MB      -0.504200
      3 C2           2.1630     0.0000     1.1340 c2         1 2MB       0.015600
      4 C1           1.4100     0.0000     2.4390 c3         1 2MB      -0.092900
      5 C2'          3.6690    -0.0000     1.1330 c3         1 2MB      -0.092900
      6 H4C1        -0.3610     0.9920     0.2430 hc         1 2MB       0.046367
      7 H4C2        -0.3610    -0.7070     0.7370 hc         1 2MB       0.046367
      8 H4C3        -0.3610    -0.2850    -0.9810 hc         1 2MB       0.046367
      9 H3           0.8950    -0.8740     0.1860 ha         1 2MB       0.330000
     10 H1C1         0.8840    -0.9400     2.5530 hc         1 2MB       0.050533
     11 H1C2         0.6970     0.8150     2.4450 hc         1 2MB       0.050533
     12 H1C3         2.1070     0.1250     3.2580 hc         1 2MB       0.050533
     13 H2'1         4.0300    -0.0090     0.1120 hc         1 2MB       0.050533
     14 H2'2         4.0310    -0.8800     1.6520 hc         1 2MB       0.050533
     15 H2'3         4.0310     0.8890     1.6360 hc         1 2MB       0.050533
@<TRIPOS>BOND
     1     1     2 1   
     2     1     6 1   
     3     1     7 1   
     4     1     8 1   
     5     2     3 2   
     6     2     9 1   
     7     3     4 1   
     8     3     5 1   
     9     4    10 1   
    10     4    11 1   
    11     4    12 1   
    12     5    13 1   
    13     5    14 1   
    14     5    15 1   
@<TRIPOS>SUBSTRUCTURE
     1 2MB         1 TEMP              0 ****  ****    0 ROOT
