@<TRIPOS>MOLECULE
2ME
   12    11     1     0     0
SMALL
bcc


@<TRIPOS>ATOM
      1 CA'         0.0110   -0.0010    0.0250 c3        1 2ME     -0.097100
      2 CB'         1.5180    0.0010   -0.0790 c3        1 2ME      0.127400
      3 OC'         2.0270   -0.0020    1.2550 os        1 2ME     -0.423600
      4 CD'         3.4420    0.0000    1.2960 c3        1 2ME      0.116700
      5 HA'1       -0.4310    0.0000   -0.9990 hc        1 2ME      0.044700
      6 HA'2       -0.3420    0.9010    0.5780 hc        1 2ME      0.044700
      7 HA'3       -0.3400   -0.9070    0.5750 hc        1 2ME      0.044700
      8 HB'1        1.8870   -0.9100   -0.6210 h1        1 2ME      0.023700
      9 HB'2        1.8850    0.9160   -0.6170 h1        1 2ME      0.023700
     10 HD'1        3.8540   -0.9120    0.7980 h1        1 2ME      0.031367
     11 HD'2        3.8510    0.9170    0.8040 h1        1 2ME      0.031367
     12 HD'3        3.6910   -0.0030    2.3870 h1        1 2ME      0.031367
@<TRIPOS>BOND
     1    1    2 1   
     2    1    5 1   
     3    1    6 1   
     4    1    7 1   
     5    2    3 1   
     6    2    8 1   
     7    2    9 1   
     8    3    4 1   
     9    4   10 1   
    10    4   11 1   
    11    4   12 1   
@<TRIPOS>SUBSTRUCTURE
     1 2ME         1 TEMP              0 ****  ****    0 ROOT
