@<TRIPOS>MOLECULE
molecule
   12    11     1     0     0
SMALL
bcc


@<TRIPOS>ATOM
      1 CA'          0.0000     0.0000     0.0000 c3         1 2ME      -0.093100
      2 CB'          1.5300     0.0000     0.0000 c3         1 2ME       0.121400
      3 OC'          2.0060     0.0000     1.3480 os         1 2ME      -0.410600
      4 CD'          3.4340    -0.0000     1.2810 c3         1 2ME       0.116700
      5 HA'1        -0.3610    -0.8840     0.5110 hc         1 2ME       0.043367
      6 HA'2        -0.3610     0.8850     0.5110 hc         1 2ME       0.043367
      7 HA'3        -0.3610    -0.0000    -1.0210 hc         1 2ME       0.043367
      8 HB'1         1.8910     0.8850    -0.5110 h1         1 2ME       0.023700
      9 HB'2         1.8910    -0.8850    -0.5110 h1         1 2ME       0.023700
     10 HD'1         3.8420    -0.0000     2.2850 h1         1 2ME       0.029700
     11 HD'2         3.7710     0.8850     0.7540 h1         1 2ME       0.029700
     12 HD'3         3.7710    -0.8850     0.7540 h1         1 2ME       0.029700
@<TRIPOS>BOND
     1     1     2 1
     2     1     5 1
     3     1     6 1
     4     1     7 1
     5     2     3 1
     6     2     8 1
     7     2     9 1
     8     3     4 1
     9     4    10 1
    10     4    11 1
    11     4    12 1
@<TRIPOS>SUBSTRUCTURE
     1 2ME         1 TEMP              0 ****  ****    0 ROOT
