@<TRIPOS>MOLECULE
2MH
   24    24     1     0     0
SMALL
bcc


@<TRIPOS>ATOM
      1 N1           0.0000     0.0000     0.0000 nz         1 2MH       0.048400
      2 C5           1.4680     0.0000     0.0000 c3         1 2MH      -0.067500
      3 C6           1.9780     0.0000     1.4430 c3         1 2MH      -0.034400
      4 C4           1.9780     1.2500    -0.7200 c3         1 2MH      -0.034400
      5 C3           1.4680     2.4980     0.0010 c3         1 2MH      -0.036900
      6 C2           1.9770     2.4980     1.4440 c3         1 2MH      -0.058700
      7 C1           1.4660     3.7470     2.1650 c3         1 2MH       0.011900
      8 C7           1.4670     1.2500     2.1640 c3         1 2MH      -0.036900
      9 HN11        -0.3340     0.0010    -0.9440 hn         1 2MH       0.232133
     10 HN12        -0.3340     0.8170     0.4730 hn         1 2MH       0.232133
     11 H5           1.8340    -0.8830    -0.5100 hx         1 2MH       0.088700
     12 H61          3.0610     0.0020     1.4420 hc         1 2MH       0.052700
     13 H62          1.6140    -0.8840     1.9530 hc         1 2MH       0.052700
     14 H41          1.6150     1.2500    -1.7410 hc         1 2MH       0.052700
     15 H42          3.0620     1.2500    -0.7170 hc         1 2MH       0.052700
     16 H31          1.8320     3.3820    -0.5090 hc         1 2MH       0.028700
     17 H32          0.3840     2.4960     0.0020 hc         1 2MH       0.028700
     18 H2           3.0600     2.4950     1.4420 hc         1 2MH       0.052700
     19 H11          1.8280     4.6320     1.6540 hc         1 2MH       0.016033
     20 H12          0.3830     3.7470     2.1640 hc         1 2MH       0.016033
     21 H13          1.8270     3.7470     3.1860 hc         1 2MH       0.016033
     22 H71          1.8310     1.2490     3.1850 hc         1 2MH       0.028700
     23 H72          0.3840     1.2490     2.1610 hc         1 2MH       0.028700
     24 H131        -0.3340    -0.8180     0.4710 hn         1 2MH       0.232133
@<TRIPOS>BOND
     1     1     2 1   
     2     1     9 1   
     3     1    10 1   
     4     1    24 1   
     5     2     3 1   
     6     2     4 1   
     7     2    11 1   
     8     3     8 1   
     9     3    12 1   
    10     3    13 1   
    11     4     5 1   
    12     4    14 1   
    13     4    15 1   
    14     5     6 1   
    15     5    16 1   
    16     5    17 1   
    17     6     7 1   
    18     6     8 1   
    19     6    18 1   
    20     7    19 1   
    21     7    20 1   
    22     7    21 1   
    23     8    22 1   
    24     8    23 1   
@<TRIPOS>SUBSTRUCTURE
     1 2MH         1 TEMP              0 ****  ****    0 ROOT
