@<TRIPOS>MOLECULE
2MI
   19    20     1     0     0
SMALL
bcc


@<TRIPOS>ATOM
      1 CAJ         0.0100    0.0130   -0.0280 c3        1 2MI     -0.043900
      2 CAG         1.4840    0.0090    0.0210 cc        1 2MI     -0.059300
      3 CAC         2.3010   -0.0300    1.1520 cd        1 2MI     -0.185200
      4 CAA         3.6710   -0.0160    0.6970 ca        1 2MI     -0.093800
      5 CAD         4.9100   -0.0390    1.3390 ca        1 2MI     -0.083000
      6 CAH         6.0640   -0.0140    0.5710 ca        1 2MI     -0.160000
      7 CAI         6.0070    0.0340   -0.8340 ca        1 2MI     -0.113000
      8 CAF         4.7990    0.0590   -1.5130 ca        1 2MI     -0.148000
      9 CAB         3.6210    0.0340   -0.7490 ca        1 2MI     -0.042200
     10 NAE         2.2810    0.0480   -1.1360 na        1 2MI     -0.194400
     11 HAJ1       -0.3960   -0.0250    1.0120 hc        1 2MI      0.051367
     12 HAJ2       -0.3740   -0.8750   -0.5930 hc        1 2MI      0.051367
     13 HAJ3       -0.3720    0.9390   -0.5260 hc        1 2MI      0.051367
     14 HAC         1.9740   -0.0650    2.1860 ha        1 2MI      0.155000
     15 HAD         4.9610   -0.0760    2.4360 ha        1 2MI      0.133000
     16 HAH         7.0480   -0.0310    1.0620 ha        1 2MI      0.128000
     17 HAI         6.9480    0.0530   -1.4050 ha        1 2MI      0.128000
     18 HAF         4.7630    0.0960   -2.6100 ha        1 2MI      0.130000
     19 HAE         1.9480    0.0800   -2.0610 hn        1 2MI      0.295700
@<TRIPOS>BOND
     1    1    2 1   
     2    1   11 1   
     3    1   12 1   
     4    1   13 1   
     5    2    3 2   
     6    2   10 1   
     7    3    4 1   
     8    3   14 1   
     9    4    5 ar  
    10    4    9 ar  
    11    5    6 ar  
    12    5   15 1   
    13    6    7 ar  
    14    6   16 1   
    15    7    8 ar  
    16    7   17 1   
    17    8    9 ar  
    18    8   18 1   
    19    9   10 1   
    20   10   19 1   
@<TRIPOS>SUBSTRUCTURE
     1 2MI         1 TEMP              0 ****  ****    0 ROOT
