@<TRIPOS>MOLECULE
molecule
   19    20     1     0     0
SMALL
bcc


@<TRIPOS>ATOM
      1 CAJ          0.0000     0.0000     0.0000 c3         1 2MI      -0.031900
      2 CAG          1.5070     0.0000     0.0000 cc         1 2MI      -0.056300
      3 CAC          2.2770     0.0000     1.0990 cd         1 2MI      -0.199200
      4 CAA          3.6700    -0.0030     0.6470 ca         1 2MI      -0.100800
      5 CAD          4.9030    -0.0070     1.3010 ca         1 2MI      -0.080000
      6 CAH          6.0580    -0.0030     0.5720 ca         1 2MI      -0.158000
      7 CAI          6.0160     0.0060    -0.8150 ca         1 2MI      -0.110000
      8 CAF          4.8100     0.0090    -1.4810 ca         1 2MI      -0.144000
      9 CAB          3.6220     0.0040    -0.7590 ca         1 2MI      -0.039200
     10 NAE          2.2920     0.0060    -1.1190 na         1 2MI      -0.181400
     11 HAJ1        -0.3610    -0.5080     0.8860 hc         1 2MI       0.048700
     12 HAJ2        -0.3610     1.0210    -0.0030 hc         1 2MI       0.048700
     13 HAJ3        -0.3610    -0.5140    -0.8830 hc         1 2MI       0.048700
     14 HAC          1.9370     0.1660     2.1150 ha         1 2MI       0.153000
     15 HAD          4.9440    -0.0130     2.3840 ha         1 2MI       0.129000
     16 HAH          7.0150    -0.0050     1.0800 ha         1 2MI       0.127000
     17 HAI          6.9410     0.0090    -1.3790 ha         1 2MI       0.128000
     18 HAF          4.7880     0.0150    -2.5640 ha         1 2MI       0.123000
     19 HAE          1.9520     0.0110    -2.0600 hn         1 2MI       0.293700
@<TRIPOS>BOND
     1     1     2 1   
     2     1    11 1   
     3     1    12 1   
     4     1    13 1   
     5     2     3 2   
     6     2    10 1   
     7     3     4 1   
     8     3    14 1   
     9     4     5 ar  
    10     4     9 ar  
    11     5     6 ar  
    12     5    15 1   
    13     6     7 ar  
    14     6    16 1   
    15     7     8 ar  
    16     7    17 1   
    17     8     9 ar  
    18     8    18 1   
    19     9    10 1   
    20    10    19 1   
@<TRIPOS>SUBSTRUCTURE
     1 2MI         1 TEMP              0 ****  ****    0 ROOT
