@<TRIPOS>MOLECULE
molecule
   28    27     1     0     0
SMALL
bcc


@<TRIPOS>ATOM
      1 C13          0.0000     0.0000     0.0000 c3         1 2MJ      -0.060700
      2 C9           4.0760    -0.1790    -2.8830 c3         1 2MJ       0.120400
      3 C1           3.5660    -0.0400    -1.4480 c3         1 2MJ       0.080100
      4 O10          4.1170    -1.0850    -0.6430 oh         1 2MJ      -0.547800
      5 C11          2.0400    -0.1390    -1.4360 c3         1 2MJ       0.144500
      6 C12          1.5300     0.0000     0.0000 c3         1 2MJ      -0.208400
      7 C47         -0.5100     0.0000     1.4430 c3         1 2MJ      -0.100600
      8 C19         -0.5100     1.2500    -0.7210 c3         1 2MJ      -0.100600
      9 N20          1.6290    -1.4410    -1.9780 nz         1 2MJ      -0.818600
     10 H1          -0.3610    -0.8840    -0.5110 hc         1 2MJ       0.028700
     11 H4           3.5910     0.5580    -3.5120 h1         1 2MJ       0.026200
     12 H5           3.8690     0.9200    -1.0490 h1         1 2MJ       0.096700
     13 H6           4.3910    -0.2580    -0.2810 ho         1 2MJ       0.441000
     14 H7           1.6220     0.6530    -2.0450 hx         1 2MJ       0.091700
     15 H8           1.3490     0.7930    -0.7160 hc         1 2MJ       0.111200
     16 H9           2.0920     0.5060     0.7750 hc         1 2MJ       0.111200
     17 H10         -0.0980    -0.8510     1.9710 hc         1 2MJ       0.054367
     18 H11         -0.2010     0.9140     1.9350 hc         1 2MJ       0.054367
     19 H12         -1.5910    -0.0630     1.4440 hc         1 2MJ       0.054367
     20 H13         -0.4690     1.0910    -1.7920 hc         1 2MJ       0.054367
     21 H14          0.1100     2.0980    -0.4570 hc         1 2MJ       0.054367
     22 H15         -1.5340     1.4450    -0.4240 hc         1 2MJ       0.054367
     23 H16          0.6330    -1.4670    -2.0650 hn         1 2MJ       0.457467
     24 H45          5.7890     0.0500    -3.8030 ho         1 2MJ       0.435000
     25 H2           2.0460    -1.5740    -2.8780 hn         1 2MJ       0.457467
     26 O1           5.4900     0.0290    -2.9090 oh         1 2MJ      -0.576800
     27 H203         1.9290    -2.1690    -1.3600 hn         1 2MJ       0.457467
     28 H3           3.8510    -1.1730    -3.2520 h1         1 2MJ       0.026200
@<TRIPOS>BOND
     1     8     1 1   
     2     9     5 1   
     3     1     7 1   
     4     1     6 1   
     5     5     6 1   
     6     5     3 1   
     7     2     3 1   
     8     3     4 1   
     9     2    26 1   
    10     1    10 1   
    11     2    28 1   
    12     2    11 1   
    13     3    12 1   
    14     4    13 1   
    15     5    14 1   
    16     6    15 1   
    17     6    16 1   
    18     7    17 1   
    19     7    18 1   
    20     7    19 1   
    21     8    20 1   
    22     8    21 1   
    23     8    22 1   
    24     9    23 1   
    25    26    24 1   
    26     9    25 1   
    27    27     9 1   
@<TRIPOS>SUBSTRUCTURE
     1 2MJ         1 TEMP              0 ****  ****    0 ROOT
