@<TRIPOS>MOLECULE
molecule
   25    24     1     0     0
SMALL
bcc


@<TRIPOS>ATOM
      1 CE           0.0000     0.0000     0.0000 c3         1 2MM       0.003000
      2 SD           1.8140     0.0000     0.0000 ss         1 2MM      -0.401200
      3 CG           2.2230     0.0000     1.7670 c3         1 2MM       0.037700
      4 CB           3.7440     0.0000     1.9390 c3         1 2MM      -0.049400
      5 CA           4.0880    -0.0000     3.4300 c3         1 2MM       0.061500
      6 C            5.5810    -0.1240     3.6000 c          1 2MM       0.870600
      7 O            6.2610     0.8690     3.7060 o          1 2MM      -0.844300
      8 N            3.6280     1.2550     4.0390 n3         1 2MM      -0.735600
      9 CN2          4.0400     1.3380     5.4470 c3         1 2MM       0.141100
     10 CN1          4.1100     2.4160     3.2800 c3         1 2MM       0.141100
     11 OXT          6.1540    -1.3370     3.6330 o          1 2MM      -0.844300
     12 HE          -0.3610    -0.0420    -1.0200 h1         1 2MM       0.047367
     13 HEA         -0.3610    -0.8630     0.5470 h1         1 2MM       0.047367
     14 HEB         -0.3610     0.9050     0.4740 h1         1 2MM       0.047367
     15 HG           1.8070    -0.8850     2.2330 h1         1 2MM       0.058200
     16 HGA          1.8060     0.8850     2.2330 h1         1 2MM       0.058200
     17 HB           4.1600    -0.8850     1.4720 hc         1 2MM       0.059200
     18 HBA          4.1600     0.8850     1.4720 hc         1 2MM       0.059200
     19 HA           3.5990    -0.8370     3.9130 h1         1 2MM       0.057700
     20 HN2          5.0050     1.8250     5.5130 h1         1 2MM       0.030867
     21 HN2A         3.3080     1.9100     6.0050 h1         1 2MM       0.030867
     22 HN2B         4.1100     0.3400     5.8620 h1         1 2MM       0.030867
     23 HN1          5.1530     2.2720     3.0250 h1         1 2MM       0.030867
     24 HN1A         3.5280     2.5210     2.3720 h1         1 2MM       0.030867
     25 HN1B         4.0050     3.3100     3.8820 h1         1 2MM       0.030867
@<TRIPOS>BOND
     1     2     1 1   
     2     1    12 1   
     3     1    13 1   
     4     1    14 1   
     5     3     2 1   
     6     4     3 1   
     7     3    15 1   
     8     3    16 1   
     9     5     4 1   
    10     4    17 1   
    11     4    18 1   
    12     6     5 1   
    13     8     5 1   
    14     5    19 1   
    15     7     6 1   
    16     6    11 1   
    17     9     8 1   
    18    10     8 1   
    19     9    20 1   
    20     9    21 1   
    21     9    22 1   
    22    10    23 1   
    23    10    24 1   
    24    10    25 1   
@<TRIPOS>SUBSTRUCTURE
     1 2MM         1 TEMP              0 ****  ****    0 ROOT
