@<TRIPOS>MOLECULE
2MN
   21    21     1     0     0
SMALL
bcc


@<TRIPOS>ATOM
      1 OHD          0.0000     0.0000     0.0000 oh         1 2MN      -0.580800
      2 CB6          1.4290     0.0000     0.0000 c3         1 2MN       0.220400
      3 CB5          1.9380     0.0000     1.4420 c3         1 2MN      -0.093700
      4 NC1          3.4030    -0.0010     1.4430 na         1 2MN       0.361100
      5 CC3          4.2040    -1.0870     1.4530 cc         1 2MN       0.247800
      6 CA5          3.7390    -2.5210     1.4610 c3         1 2MN      -0.001400
      7 NC4          5.4480    -0.6910     1.4480 nd         1 2MN      -0.626000
      8 CC5          5.4840     0.6490     1.4410 cd         1 2MN       0.448200
      9 CC2          4.2160     1.1010     1.4410 cc         1 2MN      -0.782800
     10 NO           3.7830     2.5170     1.4350 no         1 2MN       1.104200
     11 OB           4.6150     3.4070     1.4290 o          1 2MN      -0.454500
     12 OA           2.5960     2.7910     1.4370 o          1 2MN      -0.454500
     13 HHD         -0.3140    -0.0520    -0.8870 ho         1 2MN       0.401000
     14 HB6          1.7900     0.8850    -0.5110 h1         1 2MN      -0.005800
     15 H6           1.7900    -0.8850    -0.5110 h1         1 2MN      -0.005800
     16 HB5          1.5770     0.8850     1.9520 h1         1 2MN       0.068700
     17 H5           1.5760    -0.8840     1.9530 h1         1 2MN       0.068700
     18 HA51         3.0340    -2.6680     2.2700 hc         1 2MN       0.020700
     19 HA52         4.5900    -3.1760     1.6010 hc         1 2MN       0.020700
     20 HA53         3.2580    -2.7500     0.5170 hc         1 2MN       0.020700
     21 HC5          6.3780     1.2610     1.4380 h4         1 2MN       0.022100
@<TRIPOS>BOND
     1     1     2 1   
     2     1    13 1   
     3     2     3 1   
     4     2    14 1   
     5     2    15 1   
     6     3     4 1   
     7     3    16 1   
     8     3    17 1   
     9     4     5 1   
    10     4     9 1   
    11     5     6 1   
    12     5     7 2   
    13     6    18 1   
    14     6    19 1   
    15     6    20 1   
    16     7     8 1   
    17     8     9 2   
    18     8    21 1   
    19     9    10 1   
    20    10    11 1   
    21    10    12 1   
@<TRIPOS>SUBSTRUCTURE
     1 2MN         1 TEMP              0 ****  ****    0 ROOT
