@<TRIPOS>MOLECULE
2MP
   19    19     1     0     0
SMALL
bcc


@<TRIPOS>ATOM
      1 O1         -0.0080   -0.1530    0.1740 oh        1 2MP     -0.499100
      2 C1          1.3640   -0.1000    0.0780 ca        1 2MP      0.122100
      3 C2          2.0740   -0.0040    1.2850 ca        1 2MP     -0.158000
      4 C3          3.4620    0.0520    1.2430 ca        1 2MP     -0.094000
      5 C4          4.1530    0.0140    0.0260 ca        1 2MP     -0.113300
      6 C5          3.4330   -0.0830   -1.1780 ca        1 2MP     -0.039300
      7 C6          2.0370   -0.1400   -1.1500 ca        1 2MP     -0.210000
      8 C7          5.6330    0.0760    0.0080 c3        1 2MP     -0.046800
      9 C8          4.1480   -0.1250   -2.4750 c3        1 2MP     -0.054800
     10 HO1        -0.3670   -0.2170   -0.7230 ho        1 2MP      0.417000
     11 H2          1.5280    0.0260    2.2380 ha        1 2MP      0.149000
     12 H3          4.0270    0.1280    2.1850 ha        1 2MP      0.133000
     13 H6          1.4680   -0.2150   -2.0880 ha        1 2MP      0.132000
     14 H71         5.9770    0.9710   -0.5700 hc        1 2MP      0.042033
     15 H72         6.0500    0.1410    1.0420 hc        1 2MP      0.042033
     16 H73         6.0530   -0.8360   -0.4860 hc        1 2MP      0.042033
     17 H81         4.7700    0.7970   -2.6020 hc        1 2MP      0.045367
     18 H82         3.4360   -0.1930   -3.3330 hc        1 2MP      0.045367
     19 H83         4.8310   -1.0100   -2.5090 hc        1 2MP      0.045367
@<TRIPOS>BOND
     1    1    2 1   
     2    1   10 1   
     3    2    3 ar  
     4    2    7 ar  
     5    3    4 ar  
     6    3   11 1   
     7    4    5 ar  
     8    4   12 1   
     9    5    6 ar  
    10    5    8 1   
    11    6    7 ar  
    12    6    9 1   
    13    7   13 1   
    14    8   14 1   
    15    8   15 1   
    16    8   16 1   
    17    9   17 1   
    18    9   18 1   
    19    9   19 1   
@<TRIPOS>SUBSTRUCTURE
     1 2MP         1 TEMP              0 ****  ****    0 ROOT
