@<TRIPOS>MOLECULE
molecule
   19    19     1     0     0
SMALL
bcc


@<TRIPOS>ATOM
      1 O1           0.0000     0.0000     0.0000 oh         1 2MP      -0.523100
      2 C1           1.3590     0.0000     0.0000 ca         1 2MP       0.101100
      3 C2           2.0540     0.0000     1.2010 ca         1 2MP      -0.153000
      4 C3           3.4340     0.0010     1.1990 ca         1 2MP      -0.112000
      5 C4           4.1240    -0.0010     0.0000 ca         1 2MP      -0.092300
      6 C5           3.4350     0.0050    -1.1960 ca         1 2MP      -0.070300
      7 C6           2.0540    -0.0000    -1.2010 ca         1 2MP      -0.150000
      8 C7           5.6320    -0.0020     0.0010 c3         1 2MP      -0.044800
      9 C8           4.1910     0.0040    -2.5010 c3         1 2MP      -0.046800
     10 HO1         -0.3140    -0.8880    -0.0440 ho         1 2MP       0.417000
     11 H2           1.5130     0.0020     2.1390 ha         1 2MP       0.139000
     12 H3           3.9770    -0.0020     2.1360 ha         1 2MP       0.133000
     13 H6           1.5150     0.0040    -2.1400 ha         1 2MP       0.140000
     14 H71          5.9930     0.8850    -0.5050 hc         1 2MP       0.043033
     15 H72          5.9930    -0.8840    -0.5130 hc         1 2MP       0.043033
     16 H73          5.9920    -0.0060     1.0230 hc         1 2MP       0.043033
     17 H81          3.4880     0.0090    -3.3250 hc         1 2MP       0.044033
     18 H82          4.8100    -0.8830    -2.5590 hc         1 2MP       0.044033
     19 H83          4.8180     0.8860    -2.5550 hc         1 2MP       0.044033
@<TRIPOS>BOND
     1     1     2 1   
     2     1    10 1   
     3     2     3 ar  
     4     2     7 ar  
     5     3     4 ar  
     6     3    11 1   
     7     4     5 ar  
     8     4    12 1   
     9     5     6 ar  
    10     5     8 1   
    11     6     7 ar  
    12     6     9 1   
    13     7    13 1   
    14     8    14 1   
    15     8    15 1   
    16     8    16 1   
    17     9    17 1   
    18     9    18 1   
    19     9    19 1   
@<TRIPOS>SUBSTRUCTURE
     1 2MP         1 TEMP              0 ****  ****    0 ROOT
