@<TRIPOS>MOLECULE
2MQ
   37    39     1     0     0
SMALL
bcc


@<TRIPOS>ATOM
      1 C2           0.0000     0.0000     0.0000 c          1 2MQ       0.620100
      2 O19         -0.6300    -0.0000    -1.0410 o          1 2MQ      -0.550500
      3 N3           1.3530     0.0000     0.0000 ns         1 2MQ      -0.011400
      4 C4           2.0490     0.0000     1.1750 cc         1 2MQ       0.015800
      5 N20          3.4200    -0.0000     1.1240 nz         1 2MQ       0.213400
      6 N5           1.4690    -0.0000     2.3480 nd         1 2MQ      -0.440100
      7 C6           0.1180     0.0000     2.4730 ca         1 2MQ       0.056400
      8 C10         -0.4920     0.0010     3.7250 ca         1 2MQ      -0.044300
      9 C16          0.3480     0.0010     4.9760 c3         1 2MQ       0.034900
     10 C17          0.6330     1.4440     5.3990 c3         1 2MQ      -0.051200
     11 N18          1.4530     1.4440     6.6180 nz         1 2MQ       0.087400
     12 C9          -1.8720     0.0020     3.8150 ca         1 2MQ      -0.261200
     13 N11         -2.7540     0.0020     4.8830 na         1 2MQ       0.192700
     14 C12         -4.0190     0.0030     4.3660 cc         1 2MQ       0.391700
     15 N14         -5.1790     0.0050     5.1120 nu         1 2MQ      -0.395200
     16 C15         -5.1070     0.0050     6.5760 c3         1 2MQ       0.182100
     17 N13         -3.9690     0.0030     3.0580 nd         1 2MQ      -0.569100
     18 C8          -2.6690     0.0020     2.6520 ca         1 2MQ       0.158400
     19 C7          -2.0680     0.0020     1.3970 ca         1 2MQ       0.049000
     20 C1          -0.6810     0.0060     1.3020 ca         1 2MQ      -0.148600
     21 HN3          1.8480     0.0000    -0.8700 hn         1 2MQ       0.195500
     22 HN20         3.7890    -0.1710     2.0390 hn         1 2MQ       0.218467
     23 HN2A         3.7420     0.8880     0.7950 hn         1 2MQ       0.218467
     24 H16          1.2840    -0.5100     4.7820 hc         1 2MQ       0.038700
     25 H16A        -0.1850    -0.5100     5.7690 hc         1 2MQ       0.038700
     26 H17          1.1660     1.9540     4.6060 hx         1 2MQ       0.086200
     27 H17A        -0.3020     1.9550     5.5920 hx         1 2MQ       0.086200
     28 HN18         1.6630     2.3870     6.8790 hn         1 2MQ       0.227133
     29 HN1A         0.9490     0.9970     7.3590 hn         1 2MQ       0.227133
     30 HN11        -2.5120    -0.1240     5.8460 hn         1 2MQ       0.134700
     31 HN14        -6.0680     0.0440     4.6540 hn         1 2MQ       0.335800
     32 H15         -4.5910     0.8960     6.9120 h1         1 2MQ       0.018367
     33 H15A        -6.1100    -0.0090     6.9860 h1         1 2MQ       0.018367
     34 H15B        -4.5690    -0.8730     6.9110 h1         1 2MQ       0.018367
     35 H7          -2.7950     0.0100     0.5940 ha         1 2MQ       0.163000
     36 H203         3.7310    -0.7190     0.5000 hn         1 2MQ       0.218467
     37 H183         2.3010     0.9390     6.4510 hn         1 2MQ       0.227133
@<TRIPOS>BOND
     1     1     2 2   
     2     1     3 1   
     3     1    20 1   
     4     3     4 1   
     5     3    21 1   
     6     4     5 1   
     7     4     6 2   
     8     5    22 1   
     9     5    23 1   
    10     5    36 1   
    11     6     7 1   
    12     7     8 ar  
    13     7    20 ar  
    14     8     9 1   
    15     8    12 ar  
    16     9    10 1   
    17     9    24 1   
    18     9    25 1   
    19    10    11 1   
    20    10    26 1   
    21    10    27 1   
    22    11    28 1   
    23    11    29 1   
    24    11    37 1   
    25    12    13 1   
    26    12    18 ar  
    27    13    14 1   
    28    13    30 1   
    29    14    15 1   
    30    14    17 2   
    31    15    16 1   
    32    15    31 1   
    33    16    32 1   
    34    16    33 1   
    35    16    34 1   
    36    17    18 1   
    37    18    19 ar  
    38    19    20 ar  
    39    19    35 1   
@<TRIPOS>SUBSTRUCTURE
     1 2MQ         1 TEMP              0 ****  ****    0 ROOT
