@<TRIPOS>MOLECULE
molecule
   37    39     1     0     0
SMALL
bcc


@<TRIPOS>ATOM
      1 C2           0.0000     0.0000     0.0000 c          1 2MQ       0.717100
      2 O19         -0.6300    -0.0000    -1.0410 o          1 2MQ      -0.514500
      3 N3           1.3530     0.0000     0.0000 ns         1 2MQ      -0.476400
      4 C4           2.0490     0.0000     1.1750 cc         1 2MQ       0.474800
      5 N20          3.4200    -0.0000     1.1240 nz         1 2MQ      -0.735600
      6 N5           1.4690    -0.0000     2.3480 nd         1 2MQ      -0.606100
      7 C6           0.1180     0.0000     2.4730 ca         1 2MQ       0.129400
      8 C10         -0.4920     0.0010     3.7250 ca         1 2MQ      -0.055300
      9 C16          0.3480     0.0010     4.9760 c3         1 2MQ      -0.049100
     10 C17          0.6330     1.4440     5.3990 c3         1 2MQ       0.094800
     11 N18          1.4530     1.4440     6.6180 nz         1 2MQ      -0.811600
     12 C9          -1.8720     0.0020     3.8150 ca         1 2MQ      -0.084200
     13 N11         -2.7540     0.0020     4.8830 na         1 2MQ      -0.307300
     14 C12         -4.0190     0.0030     4.3660 cc         1 2MQ       0.729700
     15 N14         -5.1790     0.0050     5.1120 nu         1 2MQ      -0.839200
     16 C15         -5.1070     0.0050     6.5760 c3         1 2MQ       0.211100
     17 N13         -3.9690     0.0030     3.0580 nd         1 2MQ      -0.637100
     18 C8          -2.6690     0.0020     2.6520 ca         1 2MQ       0.180400
     19 C7          -2.0680     0.0020     1.3970 ca         1 2MQ       0.003000
     20 C1          -0.6810     0.0060     1.3020 ca         1 2MQ      -0.149600
     21 HN3          1.8480     0.0000    -0.8700 hn         1 2MQ       0.354500
     22 HN20         3.7890    -0.1710     2.0390 hn         1 2MQ       0.478800
     23 HN2A         3.7420     0.8880     0.7950 hn         1 2MQ       0.478800
     24 H16          1.2840    -0.5100     4.7820 hc         1 2MQ       0.073700
     25 H16A        -0.1850    -0.5100     5.7690 hc         1 2MQ       0.073700
     26 H17          1.1660     1.9540     4.6060 hx         1 2MQ       0.116200
     27 H17A        -0.3020     1.9550     5.5920 hx         1 2MQ       0.116200
     28 HN18         1.6630     2.3870     6.8790 hn         1 2MQ       0.461133
     29 HN1A         0.9490     0.9970     7.3590 hn         1 2MQ       0.461133
     30 HN11        -2.5120    -0.1240     5.8460 hn         1 2MQ       0.304700
     31 HN14        -6.0680     0.0440     4.6540 hn         1 2MQ       0.501800
     32 H15         -4.5910     0.8960     6.9120 h1         1 2MQ       0.053700
     33 H15A        -6.1100    -0.0090     6.9860 h1         1 2MQ       0.053700
     34 H15B        -4.5690    -0.8730     6.9110 h1         1 2MQ       0.053700
     35 H7          -2.7950     0.0100     0.5940 ha         1 2MQ       0.207000
     36 H203         3.7310    -0.7190     0.5000 hn         1 2MQ       0.478800
     37 H183         2.3010     0.9390     6.4510 hn         1 2MQ       0.461133
@<TRIPOS>BOND
     1     1     2 2   
     2     1     3 1   
     3     1    20 1   
     4     3     4 1   
     5     4     5 1   
     6     4     6 2   
     7     6     7 1   
     8     7     8 ar  
     9     7    20 ar  
    10     8     9 1   
    11     8    12 ar  
    12     9    10 1   
    13    10    11 1   
    14    12    13 1   
    15    12    18 ar  
    16    13    14 1   
    17    14    15 1   
    18    14    17 2   
    19    15    16 1   
    20    17    18 1   
    21    18    19 ar  
    22    19    20 ar  
    23     3    21 1   
    24     5    22 1   
    25     5    23 1   
    26     9    24 1   
    27     9    25 1   
    28    10    26 1   
    29    10    27 1   
    30    11    28 1   
    31    11    29 1   
    32    13    30 1   
    33    15    31 1   
    34    16    32 1   
    35    16    33 1   
    36    16    34 1   
    37    19    35 1   
    38    36     5 1   
    39    37    11 1   
@<TRIPOS>SUBSTRUCTURE
     1 2MQ         1 TEMP              0 ****  ****    0 ROOT
