@<TRIPOS>MOLECULE
molecule
   79    82     1     0     0
SMALL
bcc


@<TRIPOS>ATOM
      1 O26          0.0000     0.0000     0.0000 oh         1 2MV      -0.606800
      2 C26          1.4290     0.0000     0.0000 c3         1 2MV       0.146800
      3 C27          1.9390     0.0000     1.4420 c3         1 2MV      -0.120600
      4 C28          1.9380    -1.2490    -0.7210 c3         1 2MV      -0.120600
      5 C25          1.9390     1.2480    -0.7210 c3         1 2MV      -0.057400
      6 C23          1.5350     2.4950     0.0680 c3         1 2MV      -0.104700
      7 C22          2.1400     3.7790    -0.5620 c3         1 2MV      -0.106400
      8 C24          0.0190     2.7820    -0.0780 c3         1 2MV       0.129400
      9 O20         -0.1190     4.1940     0.1430 os         1 2MV      -0.407600
     10 C20          1.1150     4.8590    -0.1540 c3         1 2MV       0.150800
     11 C21          1.6140     5.6070     1.0830 c3         1 2MV      -0.102100
     12 C17          0.9090     5.8420    -1.3090 c3         1 2MV      -0.060700
     13 C13         -0.0660     6.9360    -0.9050 c3         1 2MV      -0.058000
     14 C18         -1.1030     6.3560     0.0590 c3         1 2MV      -0.092100
     15 C12          0.4910     8.2160    -0.3270 c3         1 2MV      -0.067400
     16 C11         -0.7000     9.0920     0.0950 c3         1 2MV      -0.078400
     17 C9          -1.6180     9.4050    -1.0850 c3         1 2MV      -0.045200
     18 C16          0.2370     5.1280    -2.5120 c3         1 2MV      -0.078400
     19 C15         -1.0670     5.9180    -2.8140 c3         1 2MV      -0.075400
     20 C14         -0.7620     7.3050    -2.2450 c3         1 2MV      -0.034500
     21 C8          -1.9530     8.1380    -1.8580 c2         1 2MV      -0.091400
     22 C7          -3.2040     7.8020    -2.1720 ce         1 2MV      -0.160000
     23 C6          -4.3170     8.6660    -1.7710 ce         1 2MV      -0.118000
     24 C5          -5.5830     8.3270    -2.0890 cf         1 2MV      -0.082200
     25 C10         -5.8880     7.0920    -2.8400 cf         1 2MV      -0.091200
     26 C19         -5.1620     6.7170    -3.8930 c2         1 2MV      -0.211000
     27 C1          -7.0680     6.2720    -2.3560 c3         1 2MV       0.193300
     28 O1          -6.7240     5.6050    -1.1410 oh         1 2MV      -0.594800
     29 C4          -6.7620     9.1900    -1.6860 c3         1 2MV      -0.056200
     30 C3          -7.8440     8.2840    -1.0910 c3         1 2MV       0.155100
     31 O3          -8.9880     9.0700    -0.7520 oh         1 2MV      -0.610800
     32 C2          -8.2460     7.2210    -2.1100 c3         1 2MV      -0.076700
     33 C29         -9.4340     6.4250    -1.5670 c3         1 2MV      -0.077100
     34 HO26        -0.3140    -0.8780     0.1390 ho         1 2MV       0.403000
     35 H27          1.2410     0.5380     2.0720 hc         1 2MV       0.042867
     36 H27A         2.9080     0.4820     1.4830 hc         1 2MV       0.042867
     37 H27B         2.0290    -1.0210     1.7930 hc         1 2MV       0.042867
     38 H28          1.5500    -2.1330    -0.2300 hc         1 2MV       0.042867
     39 H28A         3.0210    -1.2670    -0.6930 hc         1 2MV       0.042867
     40 H28B         1.6050    -1.2330    -1.7520 hc         1 2MV       0.042867
     41 H25          3.0190     1.2050    -0.7980 hc         1 2MV       0.052700
     42 H25A         1.5080     1.2940    -1.7140 hc         1 2MV       0.052700
     43 H23          1.8120     2.4110     1.1120 hc         1 2MV       0.066700
     44 H22          2.1940     3.6880    -1.6400 hc         1 2MV       0.054200
     45 H22A         3.1130     3.9930    -0.1360 hc         1 2MV       0.054200
     46 H24         -0.5400     2.2300     0.6680 h1         1 2MV       0.057200
     47 H24A        -0.3160     2.5240    -1.0750 h1         1 2MV       0.057200
     48 H21          2.3000     4.9750     1.6340 hc         1 2MV       0.044367
     49 H21A         2.1240     6.5120     0.7770 hc         1 2MV       0.044367
     50 H21B         0.7720     5.8620     1.7150 hc         1 2MV       0.044367
     51 H17          1.8540     6.2770    -1.6130 hc         1 2MV       0.053700
     52 H18         -0.6270     6.1180     1.0020 hc         1 2MV       0.050033
     53 H18A        -1.5290     5.4560    -0.3680 hc         1 2MV       0.050033
     54 H18B        -1.8890     7.0830     0.2240 hc         1 2MV       0.050033
     55 H12          1.1050     7.9920     0.5380 hc         1 2MV       0.041700
     56 H12A         1.0780     8.7320    -1.0770 hc         1 2MV       0.041700
     57 H11         -0.3260    10.0210     0.5060 hc         1 2MV       0.044200
     58 H11A        -1.2700     8.5680     0.8530 hc         1 2MV       0.044200
     59 H9          -2.5350     9.8480    -0.7140 hc         1 2MV       0.047200
     60 H9A         -1.1210    10.1040    -1.7470 hc         1 2MV       0.047200
     61 H16         -0.0020     4.1040    -2.2490 hc         1 2MV       0.044200
     62 H16A         0.8950     5.1540    -3.3720 hc         1 2MV       0.044200
     63 H15         -1.2410     5.9740    -3.8820 hc         1 2MV       0.049700
     64 H15A        -1.9120     5.4720    -2.3030 hc         1 2MV       0.049700
     65 H14         -0.0900     7.8550    -2.8920 hc         1 2MV       0.062700
     66 H7          -3.3980     6.8900    -2.7240 ha         1 2MV       0.146000
     67 H6          -4.1220     9.5780    -1.2190 ha         1 2MV       0.132000
     68 H19         -5.4090     5.8060    -4.4250 ha         1 2MV       0.121500
     69 H19A        -4.3240     7.3220    -4.2160 ha         1 2MV       0.121500
     70 H1          -7.3390     5.5450    -3.1130 h1         1 2MV       0.038700
     71 HO1         -6.7620     4.6720    -1.2730 ho         1 2MV       0.401000
     72 H4          -6.4460     9.9140    -0.9440 hc         1 2MV       0.055200
     73 H4A         -7.1540     9.7000    -2.5580 hc         1 2MV       0.055200
     74 H3          -7.4570     7.8000    -0.2020 h1         1 2MV       0.055700
     75 HO3         -8.9510     9.3010     0.1620 ho         1 2MV       0.401000
     76 H2          -8.5220     7.7010    -3.0410 hc         1 2MV       0.067700
     77 H29         -9.3950     5.4120    -1.9500 hc         1 2MV       0.035700
     78 H29A        -9.3910     6.4040    -0.4850 hc         1 2MV       0.035700
     79 H29B       -10.3580     6.8950    -1.8830 hc         1 2MV       0.035700
@<TRIPOS>BOND
     1     1     2 1
     2     2     3 1
     3     2     4 1
     4     2     5 1
     5     5     6 1
     6     6     7 1
     7     6     8 1
     8     7    10 1
     9     8     9 1
    10     9    10 1
    11    10    11 1
    12    10    12 1
    13    12    13 1
    14    12    18 1
    15    13    14 1
    16    13    15 1
    17    13    20 1
    18    15    16 1
    19    16    17 1
    20    17    21 1
    21    18    19 1
    22    19    20 1
    23    20    21 1
    24    21    22 2
    25    22    23 1
    26    23    24 2
    27    24    25 1
    28    24    29 1
    29    25    26 2
    30    25    27 1
    31    27    28 1
    32    27    32 1
    33    29    30 1
    34    30    31 1
    35    30    32 1
    36    32    33 1
    37     1    34 1
    38     3    35 1
    39     3    36 1
    40     3    37 1
    41     4    38 1
    42     4    39 1
    43     4    40 1
    44     5    41 1
    45     5    42 1
    46     6    43 1
    47     7    44 1
    48     7    45 1
    49     8    46 1
    50     8    47 1
    51    11    48 1
    52    11    49 1
    53    11    50 1
    54    12    51 1
    55    14    52 1
    56    14    53 1
    57    14    54 1
    58    15    55 1
    59    15    56 1
    60    16    57 1
    61    16    58 1
    62    17    59 1
    63    17    60 1
    64    18    61 1
    65    18    62 1
    66    19    63 1
    67    19    64 1
    68    20    65 1
    69    22    66 1
    70    23    67 1
    71    26    68 1
    72    26    69 1
    73    27    70 1
    74    28    71 1
    75    29    72 1
    76    29    73 1
    77    30    74 1
    78    31    75 1
    79    32    76 1
    80    33    77 1
    81    33    78 1
    82    33    79 1
@<TRIPOS>SUBSTRUCTURE
     1 2MV         1 TEMP              0 ****  ****    0 ROOT
