@<TRIPOS>MOLECULE
2MV
   79    82     1     0     0
SMALL
bcc


@<TRIPOS>ATOM
      1 O26         0.5360   -0.1790    0.3550 oh        1 2MV     -0.599800
      2 C26         1.8800   -0.1210   -0.1280 c3        1 2MV      0.149800
      3 C27         2.8570   -0.3340    1.0210 c3        1 2MV     -0.124100
      4 C28         2.0850   -1.2050   -1.1850 c3        1 2MV     -0.124100
      5 C25         2.0380    1.2550   -0.7860 c3        1 2MV     -0.060400
      6 C23         2.1180    2.4210    0.1770 c3        1 2MV     -0.086700
      7 C22         2.3740    3.7360   -0.5580 c3        1 2MV     -0.105400
      8 C24         0.8200    2.6550    0.9510 c3        1 2MV      0.130400
      9 O20         0.5070    4.0500    0.9250 os        1 2MV     -0.421600
     10 C20         1.4380    4.7760    0.0980 c3        1 2MV      0.164800
     11 C21         2.2470    5.6910    1.0100 c3        1 2MV     -0.102100
     12 C17         0.6830    5.5660   -0.9780 c3        1 2MV     -0.054700
     13 C13        -0.2720    6.6960   -0.5300 c3        1 2MV     -0.032000
     14 C18        -1.1190    6.2580    0.6510 c3        1 2MV     -0.080100
     15 C12         0.3860    8.0390   -0.2550 c3        1 2MV     -0.068400
     16 C11        -0.6600    9.1230   -0.0660 c3        1 2MV     -0.072400
     17 C9         -1.6970    9.1910   -1.1750 c3        1 2MV     -0.045200
     18 C16        -0.1940    4.6560   -1.8620 c3        1 2MV     -0.077400
     19 C15        -1.4490    5.4460   -2.2400 c3        1 2MV     -0.071400
     20 C14        -1.1420    6.8730   -1.8080 c3        1 2MV     -0.038500
     21 C8         -2.2330    7.8560   -1.5800 c2        1 2MV     -0.069400
     22 C7         -3.5300    7.5790   -1.7980 ce        1 2MV     -0.158000
     23 C6         -4.6340    8.4880   -1.5940 ce        1 2MV     -0.106000
     24 C5         -5.8560    8.3550   -2.1510 cf        1 2MV     -0.091200
     25 C10        -6.2270    7.2930   -3.0860 cf        1 2MV     -0.118200
     26 C19        -5.4660    6.9330   -4.1250 c2        1 2MV     -0.182000
     27 C1         -7.5510    6.6210   -2.8220 c3        1 2MV      0.182300
     28 O1         -7.4600    5.7170   -1.7320 oh        1 2MV     -0.588800
     29 C4         -6.9340    9.3410   -1.8560 c3        1 2MV     -0.077200
     30 C3         -8.2610    8.6590   -1.5250 c3        1 2MV      0.145100
     31 O3         -9.3000    9.6290   -1.4500 oh        1 2MV     -0.595800
     32 C2         -8.6610    7.6620   -2.6150 c3        1 2MV     -0.087700
     33 C29        -9.9690    6.9830   -2.2750 c3        1 2MV     -0.087100
     34 HO26        0.4230   -1.0460    0.7610 ho        1 2MV      0.399000
     35 H27         3.8900   -0.0610    0.7020 hc        1 2MV      0.043700
     36 H27A        2.8500   -1.4040    1.3410 hc        1 2MV      0.043700
     37 H27B        2.5630    0.2970    1.8950 hc        1 2MV      0.043700
     38 H28         1.3810   -1.0460   -2.0360 hc        1 2MV      0.043700
     39 H28A        3.1330   -1.1770   -1.5660 hc        1 2MV      0.043700
     40 H28B        1.8890   -2.2130   -0.7460 hc        1 2MV      0.043700
     41 H25         1.1690    1.4070   -1.4800 hc        1 2MV      0.053200
     42 H25A        2.9760    1.2320   -1.4010 hc        1 2MV      0.053200
     43 H23         2.9550    2.2400    0.9050 hc        1 2MV      0.054700
     44 H22         2.1480    3.6320   -1.6490 hc        1 2MV      0.053200
     45 H22A        3.4420    4.0490   -0.4630 hc        1 2MV      0.053200
     46 H24        -0.0470    2.1090    0.4940 h1        1 2MV      0.056200
     47 H24A        0.9190    2.3660    2.0290 h1        1 2MV      0.056200
     48 H21         2.8130    6.4340    0.4030 hc        1 2MV      0.042033
     49 H21A        2.9660    5.0870    1.6150 hc        1 2MV      0.042033
     50 H21B        1.5690    6.2280    1.7160 hc        1 2MV      0.042033
     51 H17         1.4780    6.0370   -1.6220 hc        1 2MV      0.043700
     52 H18        -1.9900    6.9440    0.7890 hc        1 2MV      0.043033
     53 H18A       -0.5090    6.2540    1.5860 hc        1 2MV      0.043033
     54 H18B       -1.5040    5.2220    0.4860 hc        1 2MV      0.043033
     55 H12         1.0200    7.9800    0.6670 hc        1 2MV      0.040700
     56 H12A        1.0600    8.3090   -1.1100 hc        1 2MV      0.040700
     57 H11        -0.1450   10.1180    0.0010 hc        1 2MV      0.041200
     58 H11A       -1.1830    8.9560    0.9130 hc        1 2MV      0.041200
     59 H9         -2.5230    9.8750   -0.8470 hc        1 2MV      0.046200
     60 H9A        -1.2280    9.6570   -2.0860 hc        1 2MV      0.046200
     61 H16        -0.4710    3.7280   -1.3000 hc        1 2MV      0.046700
     62 H16A        0.3670    4.3520   -2.7790 hc        1 2MV      0.046700
     63 H15        -2.3400    5.0440   -1.6980 hc        1 2MV      0.046700
     64 H15A       -1.6560    5.3870   -3.3360 hc        1 2MV      0.046700
     65 H14        -0.4790    7.3230   -2.6080 hc        1 2MV      0.050700
     66 H7         -3.8140    6.5720   -2.1610 ha        1 2MV      0.136000
     67 H6         -4.4540    9.3320   -0.9040 ha        1 2MV      0.122000
     68 H19        -5.7630    6.1360   -4.8200 ha        1 2MV      0.120000
     69 H19A       -4.5030    7.4160   -4.3420 ha        1 2MV      0.120000
     70 H1         -7.8370    5.9550   -3.6880 h1        1 2MV      0.078700
     71 HO1        -7.1280    6.2110   -0.9720 ho        1 2MV      0.401000
     72 H4         -7.0830    9.9980   -2.7560 hc        1 2MV      0.055200
     73 H4A        -6.6420   10.0070   -1.0010 hc        1 2MV      0.055200
     74 H3         -8.1830    8.1270   -0.5340 h1        1 2MV      0.034700
     75 HO3        -9.0380   10.2630   -0.7730 ho        1 2MV      0.399000
     76 H2         -8.7830    8.2330   -3.5770 hc        1 2MV      0.068700
     77 H29       -10.3080    6.3520   -3.1310 hc        1 2MV      0.043367
     78 H29A      -10.7500    7.7500   -2.0540 hc        1 2MV      0.043367
     79 H29B       -9.8420    6.3250   -1.3800 hc        1 2MV      0.043367
@<TRIPOS>BOND
     1    1    2 1   
     2    1   34 1   
     3    2    3 1   
     4    2    4 1   
     5    2    5 1   
     6    3   35 1   
     7    3   36 1   
     8    3   37 1   
     9    4   38 1   
    10    4   39 1   
    11    4   40 1   
    12    5    6 1   
    13    5   41 1   
    14    5   42 1   
    15    6    7 1   
    16    6    8 1   
    17    6   43 1   
    18    7   10 1   
    19    7   44 1   
    20    7   45 1   
    21    8    9 1   
    22    8   46 1   
    23    8   47 1   
    24    9   10 1   
    25   10   11 1   
    26   10   12 1   
    27   11   48 1   
    28   11   49 1   
    29   11   50 1   
    30   12   13 1   
    31   12   18 1   
    32   12   51 1   
    33   13   14 1   
    34   13   15 1   
    35   13   20 1   
    36   14   52 1   
    37   14   53 1   
    38   14   54 1   
    39   15   16 1   
    40   15   55 1   
    41   15   56 1   
    42   16   17 1   
    43   16   57 1   
    44   16   58 1   
    45   17   21 1   
    46   17   59 1   
    47   17   60 1   
    48   18   19 1   
    49   18   61 1   
    50   18   62 1   
    51   19   20 1   
    52   19   63 1   
    53   19   64 1   
    54   20   21 1   
    55   20   65 1   
    56   21   22 2   
    57   22   23 1   
    58   22   66 1   
    59   23   24 2   
    60   23   67 1   
    61   24   25 1   
    62   24   29 1   
    63   25   26 2   
    64   25   27 1   
    65   26   68 1   
    66   26   69 1   
    67   27   28 1   
    68   27   32 1   
    69   27   70 1   
    70   28   71 1   
    71   29   30 1   
    72   29   72 1   
    73   29   73 1   
    74   30   31 1   
    75   30   32 1   
    76   30   74 1   
    77   31   75 1   
    78   32   33 1   
    79   32   76 1   
    80   33   77 1   
    81   33   78 1   
    82   33   79 1   
@<TRIPOS>SUBSTRUCTURE
     1 2MV         1 TEMP              0 ****  ****    0 ROOT
