@<TRIPOS>MOLECULE
molecule
   19    19     1     0     0
SMALL
bcc


@<TRIPOS>ATOM
      1 C8           0.0000     0.0000     0.0000 c3         1 2MY      -0.042800
      2 C6           1.5070     0.0000     0.0000 ca         1 2MY      -0.100300
      3 C5           2.1980     0.0000     1.1970 ca         1 2MY      -0.123000
      4 C4           3.5810    -0.0000     1.1980 ca         1 2MY      -0.130000
      5 C3           4.2750    -0.0020     0.0020 ca         1 2MY      -0.123000
      6 C2           3.5890    -0.0020    -1.1970 ca         1 2MY      -0.100300
      7 C7           4.3470    -0.0030    -2.5000 c3         1 2MY      -0.042800
      8 C1           2.2020    -0.0060    -1.2000 ca         1 2MY       0.099100
      9 O1           1.5240    -0.0130    -2.3790 oh         1 2MY      -0.520100
     10 H8          -0.3610     0.1620     1.0080 hc         1 2MY       0.045367
     11 H8A         -0.3610    -0.9540    -0.3640 hc         1 2MY       0.045367
     12 H8B         -0.3610     0.7920    -0.6440 hc         1 2MY       0.045367
     13 H5           1.6560     0.0010     2.1350 ha         1 2MY       0.132000
     14 H4           4.1210    -0.0000     2.1370 ha         1 2MY       0.130000
     15 H3           5.3580    -0.0020     0.0060 ha         1 2MY       0.132000
     16 H7           3.9720     0.7900    -3.1350 hc         1 2MY       0.045367
     17 H7A          5.4000     0.1570    -2.3050 hc         1 2MY       0.045367
     18 H7B          4.2110    -0.9570    -2.9950 hc         1 2MY       0.045367
     19 HO1          1.3680    -0.9030    -2.6470 ho         1 2MY       0.416000
@<TRIPOS>BOND
     1     1     2 1
     2     2     3 ar
     3     2     8 ar
     4     3     4 ar
     5     4     5 ar
     6     5     6 ar
     7     6     7 1
     8     6     8 ar
     9     8     9 1
    10     1    10 1
    11     1    11 1
    12     1    12 1
    13     3    13 1
    14     4    14 1
    15     5    15 1
    16     7    16 1
    17     7    17 1
    18     7    18 1
    19     9    19 1
@<TRIPOS>SUBSTRUCTURE
     1 2MY         1 TEMP              0 ****  ****    0 ROOT
