@<TRIPOS>MOLECULE
2MY
   19    19     1     0     0
SMALL
bcc


@<TRIPOS>ATOM
      1 C8         -0.0220    0.0100    0.0580 c3        1 2MY     -0.048300
      2 C6          1.4570    0.0010    0.0550 ca        1 2MY     -0.126300
      3 C5          2.1910    0.0710    1.2390 ca        1 2MY     -0.101000
      4 C4          3.5850    0.0590    1.2150 ca        1 2MY     -0.159000
      5 C3          4.2640   -0.0220    0.0030 ca        1 2MY     -0.101000
      6 C2          3.5640   -0.0940   -1.2060 ca        1 2MY     -0.126300
      7 C7          4.2950   -0.1800   -2.4910 c3        1 2MY     -0.048300
      8 C1          2.1580   -0.0820   -1.1680 ca        1 2MY      0.122100
      9 O1          1.3750   -0.1480   -2.3000 oh        1 2MY     -0.499100
     10 H8         -0.4270    0.0940    1.0960 hc        1 2MY      0.045367
     11 H8A        -0.4120   -0.9300   -0.4070 hc        1 2MY      0.045367
     12 H8B        -0.4010    0.8720   -0.5480 hc        1 2MY      0.045367
     13 H5          1.6600    0.1350    2.2010 ha        1 2MY      0.132500
     14 H4          4.1490    0.1150    2.1570 ha        1 2MY      0.132000
     15 H3          5.3650   -0.0300   -0.0090 ha        1 2MY      0.132500
     16 H7          4.0280   -1.1220   -3.0340 hc        1 2MY      0.045367
     17 H7A         5.4000   -0.1780   -2.3250 hc        1 2MY      0.045367
     18 H7B         4.0410    0.6900   -3.1480 hc        1 2MY      0.045367
     19 HO1         1.9580   -0.1990   -3.0710 ho        1 2MY      0.419000
@<TRIPOS>BOND
     1    1    2 1   
     2    1   10 1   
     3    1   11 1   
     4    1   12 1   
     5    2    3 ar  
     6    2    8 ar  
     7    3    4 ar  
     8    3   13 1   
     9    4    5 ar  
    10    4   14 1   
    11    5    6 ar  
    12    5   15 1   
    13    6    7 1   
    14    6    8 ar  
    15    7   16 1   
    16    7   17 1   
    17    7   18 1   
    18    8    9 1   
    19    9   19 1   
@<TRIPOS>SUBSTRUCTURE
     1 2MY         1 TEMP              0 ****  ****    0 ROOT
