@<TRIPOS>MOLECULE
2MZ
   12    12     1     0     0
SMALL
bcc


@<TRIPOS>ATOM
      1 N1         -0.0160    0.0010   -0.0100 na        1 2MZ     -0.319900
      2 C2          1.3920   -0.0010    0.0140 cc        1 2MZ      0.392800
      3 N3          1.8460    0.0010    1.2950 nd        1 2MZ     -0.665000
      4 C4          0.7150    0.0040    2.1050 cd        1 2MZ      0.292200
      5 C5         -0.4490    0.0040    1.3130 cc        1 2MZ     -0.260600
      6 C6          2.2130   -0.0050   -1.2220 c3        1 2MZ     -0.124400
      7 HN1        -0.5850   -0.0000   -0.8130 hn        1 2MZ      0.297700
      8 H4          0.7940    0.0070    3.1910 h4        1 2MZ      0.041100
      9 H5         -1.5020    0.0060    1.5840 h4        1 2MZ      0.175000
     10 H61         1.9900    0.9020   -1.8370 hc        1 2MZ      0.056700
     11 H62         1.9920   -0.9170   -1.8300 hc        1 2MZ      0.056700
     12 H63         3.3000   -0.0030   -0.9630 hc        1 2MZ      0.056700
@<TRIPOS>BOND
     1    1    2 1   
     2    1    5 1   
     3    1    7 1   
     4    2    3 2   
     5    2    6 1   
     6    3    4 1   
     7    4    5 2   
     8    4    8 1   
     9    5    9 1   
    10    6   10 1   
    11    6   11 1   
    12    6   12 1   
@<TRIPOS>SUBSTRUCTURE
     1 2MZ         1 TEMP              0 ****  ****    0 ROOT
