@<TRIPOS>MOLECULE
molecule
   12    12     1     0     0
SMALL
bcc


@<TRIPOS>ATOM
      1 N1           0.0000     0.0000     0.0000 na         1 2MZ      -0.294900
      2 C2           1.3490     0.0000     0.0000 cc         1 2MZ       0.397800
      3 N3           1.7680     0.0000     1.2350 nd         1 2MZ      -0.697000
      4 C4           0.7120     0.0060     2.0610 cd         1 2MZ       0.314200
      5 C5          -0.4050     0.0040     1.3070 cc         1 2MZ      -0.283600
      6 C6           2.2270    -0.0050    -1.2250 c3         1 2MZ      -0.107400
      7 HN1         -0.5940    -0.0010    -0.8060 hn         1 2MZ       0.295700
      8 H4           0.7490     0.0080     3.1440 h4         1 2MZ       0.040100
      9 H5          -1.4260     0.0060     1.6670 h4         1 2MZ       0.172000
     10 H61          2.0230    -0.8930    -1.8120 hc         1 2MZ       0.054033
     11 H62          3.2670    -0.0020    -0.9240 hc         1 2MZ       0.054033
     12 H63          2.0200     0.8760    -1.8210 hc         1 2MZ       0.054033
@<TRIPOS>BOND
     1     1     2 1   
     2     1     5 1   
     3     1     7 1   
     4     2     3 2   
     5     2     6 1   
     6     3     4 1   
     7     4     5 2   
     8     4     8 1   
     9     5     9 1   
    10     6    10 1   
    11     6    11 1   
    12     6    12 1   
@<TRIPOS>SUBSTRUCTURE
     1 2MZ         1 TEMP              0 ****  ****    0 ROOT
