@<TRIPOS>MOLECULE
molecule
   38    40     1     0     0
SMALL
bcc


@<TRIPOS>ATOM
      1 O            0.0000     0.0000     0.0000 o          1 2N0      -0.536100
      2 C16          1.2130     0.0000     0.0000 c          1 2N0       0.612700
      3 C4           2.0010     0.0000     1.2370 cc         1 2N0      -0.268600
      4 C3           1.6120     0.2160     2.6190 cc         1 2N0      -0.126000
      5 C15          2.0300    -0.0080    -1.2850 c3         1 2N0      -0.180400
      6 C14          3.1930    -0.9900    -1.1110 c3         1 2N0      -0.072400
      7 C13          4.1520    -0.5070    -0.0190 c3         1 2N0      -0.014100
      8 C5           3.3710    -0.2330     1.2380 cd         1 2N0      -0.072600
      9 N            3.7930    -0.1640     2.5050 na         1 2N0      -0.018100
     10 C2           2.7450     0.1050     3.3440 cd         1 2N0      -0.132600
     11 C1           2.8420     0.2520     4.8410 c3         1 2N0      -0.011100
     12 C            2.5150    -1.0860     5.5060 c3         1 2N0      -0.092100
     13 C6           5.1820    -0.3500     2.9340 c3         1 2N0       0.083600
     14 C7           5.8920     0.9800     2.9270 ca         1 2N0      -0.118300
     15 C12          5.8900     1.7710     4.0610 ca         1 2N0      -0.110000
     16 C11          6.5420     2.9900     4.0540 ca         1 2N0      -0.126500
     17 C10          7.1950     3.4180     2.9130 ca         1 2N0      -0.116000
     18 C9           7.1970     2.6270     1.7800 ca         1 2N0      -0.126500
     19 C8           6.5500     1.4060     1.7880 ca         1 2N0      -0.110000
     20 H1           0.6170     0.4250     2.9930 ha         1 2N0       0.164000
     21 H2           1.4060    -0.3260    -2.1110 hc         1 2N0       0.067700
     22 H3           2.4180     0.9860    -1.4750 hc         1 2N0       0.067700
     23 H4           2.7820    -1.9410    -0.7970 hc         1 2N0       0.054200
     24 H5           3.7420    -1.0230    -2.0450 hc         1 2N0       0.054200
     25 H6           4.6010     0.4220    -0.3480 hc         1 2N0       0.055700
     26 H7           4.8570    -1.3040     0.1880 hc         1 2N0       0.055700
     27 H8           3.8470     0.5530     5.1100 hc         1 2N0       0.050700
     28 H9           2.1370     1.0040     5.1760 hc         1 2N0       0.050700
     29 H10          1.4440    -1.2490     5.4820 hc         1 2N0       0.037700
     30 H11          3.0140    -1.8860     4.9730 hc         1 2N0       0.037700
     31 H12          2.8550    -1.0700     6.5350 hc         1 2N0       0.037700
     32 H13          5.6810    -1.0300     2.2550 h1         1 2N0       0.068700
     33 H14          5.1980    -0.7620     3.9350 h1         1 2N0       0.068700
     34 H15          5.3780     1.4350     4.9540 ha         1 2N0       0.132000
     35 H16          6.5410     3.6100     4.9420 ha         1 2N0       0.133500
     36 H17          7.7040     4.3740     2.9060 ha         1 2N0       0.133000
     37 H18          7.7100     2.9620     0.8870 ha         1 2N0       0.133500
     38 H19          6.5520     0.7860     0.8990 ha         1 2N0       0.132000
@<TRIPOS>BOND
     1     6     5 1   
     2     6     7 1   
     3     5     2 1   
     4     2     1 2   
     5     2     3 1   
     6     7     8 1   
     7     3     8 2   
     8     3     4 1   
     9     8     9 1   
    10     4    10 2   
    11     9    13 1   
    12     9    10 1   
    13    13    14 1   
    14    10    11 1   
    15    19    14 ar  
    16    19    18 ar  
    17    14    15 ar  
    18    18    17 ar  
    19    11    12 1   
    20    15    16 ar  
    21    17    16 ar  
    22     4    20 1   
    23     5    21 1   
    24     5    22 1   
    25     6    23 1   
    26     6    24 1   
    27     7    25 1   
    28     7    26 1   
    29    11    27 1   
    30    11    28 1   
    31    12    29 1   
    32    12    30 1   
    33    12    31 1   
    34    13    32 1   
    35    13    33 1   
    36    15    34 1   
    37    16    35 1   
    38    17    36 1   
    39    18    37 1   
    40    19    38 1   
@<TRIPOS>SUBSTRUCTURE
     1 2N0         1 TEMP              0 ****  ****    0 ROOT
