@<TRIPOS>MOLECULE
2N0
   38    40     1     0     0
SMALL
bcc


@<TRIPOS>ATOM
      1 O          -0.2570    0.2040    0.1810 o         1 2N0     -0.550100
      2 C16         0.9780    0.1350    0.1560 c         1 2N0      0.611700
      3 C4          1.8150    0.0550    1.3360 cc        1 2N0     -0.248600
      4 C3          1.4660    0.1260    2.7240 cc        1 2N0     -0.119000
      5 C15         1.7380    0.1630   -1.1500 c3        1 2N0     -0.180400
      6 C14         3.0120   -0.6560   -1.1200 c3        1 2N0     -0.067400
      7 C13         3.9620   -0.2330   -0.0100 c3        1 2N0     -0.017100
      8 C5          3.2170   -0.1170    1.2620 cd        1 2N0     -0.051600
      9 N           3.7260   -0.1620    2.5540 na        1 2N0     -0.043100
     10 C2          2.6540    0.0000    3.4590 cd        1 2N0     -0.135600
     11 C1          2.7930    0.0050    4.9330 c3        1 2N0     -0.013100
     12 C           2.8760   -1.3880    5.5110 c3        1 2N0     -0.093100
     13 C6          5.1130   -0.2800    2.9070 c3        1 2N0      0.079600
     14 C7          5.9200    0.9870    2.8380 ca        1 2N0     -0.116300
     15 C12         5.4340    2.1880    3.3620 ca        1 2N0     -0.116000
     16 C11         6.2240    3.3370    3.3240 ca        1 2N0     -0.128500
     17 C10         7.5030    3.2910    2.7700 ca        1 2N0     -0.122000
     18 C9          7.9910    2.0930    2.2490 ca        1 2N0     -0.128500
     19 C8          7.2020    0.9440    2.2790 ca        1 2N0     -0.116000
     20 H1          0.4640    0.2530    3.1230 ha        1 2N0      0.166000
     21 H2          1.0720   -0.2090   -1.9720 hc        1 2N0      0.069200
     22 H3          1.9810    1.2380   -1.3700 hc        1 2N0      0.069200
     23 H4          3.5380   -0.5520   -2.1050 hc        1 2N0      0.049200
     24 H5          2.7510   -1.7390   -0.9880 hc        1 2N0      0.049200
     25 H6          4.4240    0.7620   -0.2590 hc        1 2N0      0.056700
     26 H7          4.7970   -0.9800    0.0730 hc        1 2N0      0.056700
     27 H8          1.8940    0.5310    5.3580 hc        1 2N0      0.052700
     28 H9          3.6980    0.5970    5.2410 hc        1 2N0      0.052700
     29 H10         2.9440   -1.3350    6.6240 hc        1 2N0      0.037700
     30 H11         3.7760   -1.9270    5.1270 hc        1 2N0      0.037700
     31 H12         1.9710   -1.9810    5.2370 hc        1 2N0      0.037700
     32 H13         5.1700   -0.6730    3.9660 h1        1 2N0      0.070200
     33 H14         5.5770   -1.0520    2.2230 h1        1 2N0      0.070200
     34 H15         4.4250    2.2320    3.8000 ha        1 2N0      0.137500
     35 H16         5.8350    4.2810    3.7340 ha        1 2N0      0.135000
     36 H17         8.1250    4.1980    2.7420 ha        1 2N0      0.135000
     37 H18         8.9990    2.0530    1.8100 ha        1 2N0      0.135000
     38 H19         7.5920    0.0030    1.8630 ha        1 2N0      0.137500
@<TRIPOS>BOND
     1    1    2 2   
     2    2    3 1   
     3    2    5 1   
     4    3    4 1   
     5    3    8 2   
     6    4   10 2   
     7    4   20 1   
     8    5    6 1   
     9    5   21 1   
    10    5   22 1   
    11    6    7 1   
    12    6   23 1   
    13    6   24 1   
    14    7    8 1   
    15    7   25 1   
    16    7   26 1   
    17    8    9 1   
    18    9   10 1   
    19    9   13 1   
    20   10   11 1   
    21   11   12 1   
    22   11   27 1   
    23   11   28 1   
    24   12   29 1   
    25   12   30 1   
    26   12   31 1   
    27   13   14 1   
    28   13   32 1   
    29   13   33 1   
    30   14   15 ar  
    31   14   19 ar  
    32   15   16 ar  
    33   15   34 1   
    34   16   17 ar  
    35   16   35 1   
    36   17   18 ar  
    37   17   36 1   
    38   18   19 ar  
    39   18   37 1   
    40   19   38 1   
@<TRIPOS>SUBSTRUCTURE
     1 2N0         1 TEMP              0 ****  ****    0 ROOT
