@<TRIPOS>MOLECULE
molecule
   61    64     1     0     0
SMALL
bcc


@<TRIPOS>ATOM
      1 C11          0.0000     0.0000     0.0000 ca         1 2N2      -0.063000
      2 C12          1.3810     0.0000     0.0000 ca         1 2N2      -0.182000
      3 C13          2.0740     0.0000     1.2020 ca         1 2N2       0.107600
      4 C14          1.3770    -0.0000     2.4000 ca         1 2N2      -0.189000
      5 C15         -2.6930     1.3900     0.8470 ca         1 2N2      -0.060300
      6 C16         -2.5030     2.4140     1.7540 ca         1 2N2      -0.134000
      7 C17         -2.9510     3.6910     1.4660 ca         1 2N2      -0.161000
      8 C18         -3.5960     3.9510     0.2620 ca         1 2N2      -0.006400
      9 C19         -3.7910     2.9300    -0.6550 ca         1 2N2      -0.048000
     10 C20         -3.3330     1.6440    -0.3670 ca         1 2N2      -0.088600
     11 C21         -3.5380     0.5500    -1.3390 c          1 2N2       0.882200
     12 C01         -4.6050    -1.2400     3.7920 ca         1 2N2      -0.182000
     13 C02         -4.0750    -0.8430     2.5810 ca         1 2N2      -0.063000
     14 C03         -2.7570    -0.4260     2.4980 ca         1 2N2      -0.121800
     15 C04         -1.9650    -0.4050     3.6350 ca         1 2N2       0.136100
     16 C05         -2.4980    -0.8050     4.8550 ca         1 2N2      -0.189000
     17 C06         -3.8170    -1.2220     4.9330 ca         1 2N2       0.107600
     18 C07         -2.2030     0.0020     1.1660 c3         1 2N2       0.064200
     19 C08         -0.6990     0.0000     1.1940 ca         1 2N2      -0.121800
     20 C09         -0.0110    -0.0010     2.3980 ca         1 2N2       0.136100
     21 O10         -0.6740    -0.0010     3.5790 os         1 2N2      -0.245200
     22 O22         -4.7100     0.4410    -1.9940 o          1 2N2      -0.828300
     23 O23         -2.6490    -0.2510    -1.5480 o          1 2N2      -0.828300
     24 N24         -4.0510     5.2430    -0.0210 ns         1 2N2      -0.411100
     25 C25         -5.2840     5.4260    -0.5350 cs         1 2N2       0.580400
     26 N26         -5.7550     6.6720    -0.7330 ns         1 2N2      -0.540900
     27 C27         -7.0940     6.8700    -1.2910 c3         1 2N2       0.121000
     28 C28         -7.3800     8.3680    -1.4140 c3         1 2N2      -0.105400
     29 C29         -8.7790     8.5740    -1.9960 c3         1 2N2      -0.075400
     30 C30         -9.0650    10.0730    -2.1190 c3         1 2N2      -0.075400
     31 O31          3.4320     0.0000     1.2050 oh         1 2N2      -0.528600
     32 O32         -4.3370    -1.6130     6.1270 oh         1 2N2      -0.528600
     33 C33        -10.4640    10.2790    -2.7020 c3         1 2N2      -0.204400
     34 S34         -6.2530     4.0710    -0.9340 s          1 2N2      -0.639400
     35 C35        -10.7460    11.7550    -2.8230 c          1 2N2       0.568900
     36 O36        -11.0720    12.2220    -3.8870 o          1 2N2      -0.526100
     37 H1          -0.5390    -0.0000    -0.9400 ha         1 2N2       0.183500
     38 H2           1.9230     0.0000    -0.9380 ha         1 2N2       0.135500
     39 H3           1.9170    -0.0000     3.3390 ha         1 2N2       0.138000
     40 H5          -2.0040     2.2170     2.6950 ha         1 2N2       0.124000
     41 H6          -2.7990     4.4900     2.1810 ha         1 2N2       0.106000
     42 H7          -4.2910     3.1320    -1.5940 ha         1 2N2       0.187000
     43 H8          -5.6370    -1.5660     3.8510 ha         1 2N2       0.135500
     44 H9          -4.6930    -0.8570     1.6910 ha         1 2N2       0.183500
     45 H10         -1.8820    -0.7910     5.7450 ha         1 2N2       0.138000
     46 H12         -3.4530     6.0300     0.1370 hn         1 2N2       0.301500
     47 H13         -5.1890     7.4640    -0.4980 hn         1 2N2       0.295500
     48 H14         -7.1490     6.4110    -2.2710 h1         1 2N2       0.072700
     49 H15         -7.8290     6.4150    -0.6380 h1         1 2N2       0.072700
     50 H16         -7.3250     8.8270    -0.4340 hc         1 2N2       0.041700
     51 H17         -6.6460     8.8230    -2.0670 hc         1 2N2       0.041700
     52 H18         -9.5130     8.1190    -1.3430 hc         1 2N2       0.052200
     53 H19         -8.8330     8.1150    -2.9760 hc         1 2N2       0.052200
     54 H20         -9.0110    10.5320    -1.1390 hc         1 2N2       0.043200
     55 H21         -8.3310    10.5280    -2.7720 hc         1 2N2       0.043200
     56 H22         -4.1670    -2.5310     6.2590 ho         1 2N2       0.409500
     57 H23        -10.5180     9.8200    -3.6820 hc         1 2N2       0.070700
     58 H24        -11.1990     9.8230    -2.0490 hc         1 2N2       0.070700
     59 H25        -10.6980    12.3880    -1.9450 h4         1 2N2      -0.009800
     60 H4          -2.5450    -0.6860     0.4020 hc         1 2N2       0.144700
     61 H26          3.7460     0.8880     1.2480 ho         1 2N2       0.409500
@<TRIPOS>BOND
     1    35    36 2
     2    35    33 1
     3    34    25 2
     4    33    30 1
     5    30    29 1
     6    29    28 1
     7    25    26 1
     8    25    24 1
     9    27    28 1
    10    27    26 1
    11    24     8 1
    12     8     9 ar
    13     8     7 ar
    14     9    10 ar
    15     7     6 ar
    16    23    11 1
    17    10    11 1
    18    10     5 ar
    19    11    22 1
    20     6     5 ar
    21     5    18 1
    22     1     2 ar
    23     1    19 ar
    24    18    19 1
    25    18    14 1
    26     2     3 ar
    27    19    20 ar
    28    13    14 ar
    29    13    12 ar
    30    14    15 ar
    31     3    31 1
    32     3     4 ar
    33    12    17 ar
    34    20     4 ar
    35    20    21 1
    36    15    21 1
    37    15    16 ar
    38    17    16 ar
    39    17    32 1
    40     1    37 1
    41     2    38 1
    42     4    39 1
    43     6    40 1
    44     7    41 1
    45     9    42 1
    46    12    43 1
    47    13    44 1
    48    16    45 1
    49    24    46 1
    50    26    47 1
    51    27    48 1
    52    27    49 1
    53    28    50 1
    54    28    51 1
    55    29    52 1
    56    29    53 1
    57    30    54 1
    58    30    55 1
    59    32    56 1
    60    33    57 1
    61    33    58 1
    62    35    59 1
    63    18    60 1
    64    31    61 1
@<TRIPOS>SUBSTRUCTURE
     1 2N2         1 TEMP              0 ****  ****    0 ROOT
