@<TRIPOS>MOLECULE
2N5
   51    53     1     0     0
SMALL
bcc


@<TRIPOS>ATOM
      1 C1         -0.4400    0.4250    0.5260 ca        1 2N5      0.073100
      2 C2          0.9260   -0.0070    0.3950 ca        1 2N5      0.222600
      3 C3          1.6490   -0.3120    1.5710 ca        1 2N5     -0.153000
      4 C4         -1.0730    0.5840    1.7620 ca        1 2N5     -0.130000
      5 C5         -0.3470    0.3280    2.9210 ca        1 2N5     -0.122800
      6 C6          0.9860   -0.1470    2.7750 ca        1 2N5      0.090100
      7 O7          1.5390   -0.4280    4.0350 os        1 2N5     -0.160200
      8 C8          0.5640   -0.1350    4.9840 cc        1 2N5      0.308900
      9 C9         -0.5930    0.3680    4.3580 cd        1 2N5     -0.304400
     10 C10        -1.7500    0.8900    5.0100 c         1 2N5      0.615300
     11 N11        -2.4170    2.0600    4.2720 n4        1 2N5     -0.676800
     12 C12         0.9700   -0.3470    6.3500 ca        1 2N5     -0.159800
     13 O13        -1.1130    0.8160   -0.6190 os        1 2N5     -0.350900
     14 N14         1.4950   -0.1170   -0.8680 nh        1 2N5     -0.757500
     15 C15        -2.1740   -0.0800   -1.0380 c3        1 2N5      0.142100
     16 C16        -3.0500    0.7500   -1.9560 c3        1 2N5     -0.114100
     17 C17        -1.5890   -1.2820   -1.7500 c3        1 2N5     -0.114100
     18 C18         2.3300   -0.1970    6.6910 ca        1 2N5     -0.038500
     19 C19         2.7570   -0.3980    7.9950 ca        1 2N5     -0.179000
     20 C20         1.8220   -0.7730    8.9830 ca        1 2N5      0.200900
     21 C21         0.4640   -0.9470    8.6440 ca        1 2N5     -0.179000
     22 C22         0.0480   -0.7370    7.3370 ca        1 2N5     -0.038500
     23 F23         2.2280   -0.9690   10.2520 f         1 2N5     -0.105900
     24 O24        -2.2880    0.6070    6.0730 o         1 2N5     -0.457100
     25 C25        -3.8310    1.7750    3.9550 c3        1 2N5      0.080100
     26 S26         3.0560   -0.4450   -1.3200 s6        1 2N5      1.470900
     27 C27         2.9770   -2.0870   -1.7100 c3        1 2N5     -0.383300
     28 O28         3.3090    0.2880   -2.4860 o         1 2N5     -0.631800
     29 O29         3.9180   -0.2820   -0.2250 o         1 2N5     -0.631800
     30 H30         2.7020   -0.6450    1.5580 ha        1 2N5      0.210000
     31 H31        -2.1300    0.8840    1.7730 ha        1 2N5      0.129000
     32 H32        -2.3700    2.8810    4.8870 hn        1 2N5      0.461800
     33 H33         0.8470    0.1390   -1.5910 hn        1 2N5      0.470800
     34 H34        -2.7510   -0.4080   -0.1290 h1        1 2N5      0.037700
     35 H35        -3.4750    1.6220   -1.4060 hc        1 2N5      0.054700
     36 H36        -3.8830    0.1140   -2.3410 hc        1 2N5      0.054700
     37 H37        -2.4550    1.1340   -2.8200 hc        1 2N5      0.054700
     38 H38        -2.4130   -1.9600   -2.0790 hc        1 2N5      0.054700
     39 H39        -1.0120   -0.9580   -2.6500 hc        1 2N5      0.054700
     40 H40        -0.9070   -1.8450   -1.0700 hc        1 2N5      0.054700
     41 H41         3.0600    0.0830    5.9120 ha        1 2N5      0.162500
     42 H42         3.8170   -0.2730    8.2670 ha        1 2N5      0.174500
     43 H43        -0.2550   -1.2560    9.4190 ha        1 2N5      0.174500
     44 H44        -1.0110   -0.8990    7.0780 ha        1 2N5      0.162500
     45 H45        -3.8870    0.9120    3.2390 hx        1 2N5      0.108700
     46 H46        -4.3040    2.6820    3.4920 hx        1 2N5      0.108700
     47 H47        -4.3750    1.5060    4.9030 hx        1 2N5      0.108700
     48 H48         3.9800   -2.4520   -2.0580 h1        1 2N5      0.128367
     49 H49         2.2690   -2.3250   -2.5430 h1        1 2N5      0.128367
     50 H50         2.6960   -2.7500   -0.8550 h1        1 2N5      0.128367
     51 H112       -1.8930    2.2670    3.4130 hn        1 2N5      0.461800
@<TRIPOS>BOND
     1    1    2 ar
     2    1    4 ar
     3    1   13 1
     4    2    3 ar
     5    2   14 1
     6    3    6 ar
     7    3   30 1
     8    4    5 ar
     9    4   31 1
    10    5    6 ar
    11    5    9 1
    12    6    7 1
    13    7    8 1
    14    8    9 2
    15    8   12 1
    16    9   10 1
    17   10   11 1
    18   10   24 2
    19   11   25 1
    20   11   32 1
    21   11   51 1
    22   12   18 ar
    23   12   22 ar
    24   13   15 1
    25   14   26 1
    26   14   33 1
    27   15   16 1
    28   15   17 1
    29   15   34 1
    30   16   35 1
    31   16   36 1
    32   16   37 1
    33   17   38 1
    34   17   39 1
    35   17   40 1
    36   18   19 ar
    37   18   41 1
    38   19   20 ar
    39   19   42 1
    40   20   21 ar
    41   20   23 1
    42   21   22 ar
    43   21   43 1
    44   22   44 1
    45   25   45 1
    46   25   46 1
    47   25   47 1
    48   26   27 1
    49   26   28 2
    50   26   29 2
    51   27   48 1
    52   27   49 1
    53   27   50 1
@<TRIPOS>SUBSTRUCTURE
     1 2N5         1 TEMP              0 ****  ****    0 ROOT
