@<TRIPOS>MOLECULE
molecule
   35    37     1     0     0
SMALL
bcc


@<TRIPOS>ATOM
      1 C19          0.0000     0.0000     0.0000 c3         1 2N6      -0.072800
      2 C17          1.5070     0.0000     0.0000 ca         1 2N6      -0.010300
      3 C16          2.1980     0.0000     1.1940 ca         1 2N6      -0.129000
      4 C15          3.5820    -0.0060     1.1960 ca         1 2N6      -0.035300
      5 C18          4.3300    -0.0050     2.5040 c3         1 2N6      -0.084800
      6 C14          4.2810    -0.0100     0.0020 ca         1 2N6      -0.166000
      7 C13          3.5990    -0.0100    -1.1990 ca         1 2N6      -0.119000
      8 C5           2.2050    -0.0040    -1.2070 cp         1 2N6      -0.155500
      9 C4           1.4700    -0.0090    -2.4920 cp         1 2N6       0.589800
     10 C8           1.7170     0.9690    -3.4660 ca         1 2N6      -0.325400
     11 N1           0.5600    -0.9470    -2.7540 nb         1 2N6      -0.725000
     12 C2          -0.0990    -0.9540    -3.9040 ca         1 2N6       0.814300
     13 S6          -1.2910    -2.2200    -4.1900 ss         1 2N6      -0.288400
     14 C7          -1.8540    -1.7530    -5.8460 c3         1 2N6      -0.026000
     15 N3           0.1020    -0.0450    -4.8450 nb         1 2N6      -0.779000
     16 C9           0.9950     0.9250    -4.6730 ca         1 2N6       0.519800
     17 N10          1.4190     1.9770    -5.4430 na         1 2N6      -0.283100
     18 C11          2.3760     2.6910    -4.7890 cc         1 2N6      -0.066100
     19 C12          2.6120     2.1310    -3.5680 cc         1 2N6      -0.010900
     20 C20          3.5450     2.5850    -2.5820 cg         1 2N6       0.237500
     21 N21          4.2840     2.9640    -1.8050 n1         1 2N6      -0.370800
     22 H1          -0.6010    -0.8730     0.2260 hc         1 2N6       0.044033
     23 H2          -0.3180     0.1950    -1.0170 hc         1 2N6       0.044033
     24 H3          -0.5490     0.8470     0.3940 hc         1 2N6       0.044033
     25 H4           1.5700    -0.3110     2.0200 ha         1 2N6       0.142000
     26 H5           4.5280     0.9620     2.9510 hc         1 2N6       0.058033
     27 H6           4.2160    -1.0240     2.8550 hc         1 2N6       0.058033
     28 H7           5.2890    -0.3630     2.1490 hc         1 2N6       0.058033
     29 H8           5.2440     0.3030    -0.3820 ha         1 2N6       0.152000
     30 H9           4.3510    -0.1420    -1.9670 ha         1 2N6       0.140000
     31 H10         -2.4800    -1.0070    -5.3720 h1         1 2N6       0.086033
     32 H11         -1.1850    -1.7820    -6.6970 h1         1 2N6       0.086033
     33 H12         -2.7590    -2.3480    -5.8180 h1         1 2N6       0.086033
     34 H13          1.3390     2.2180    -6.4110 hn         1 2N6       0.311700
     35 H14          2.6320     3.5520    -5.3940 h4         1 2N6       0.176000
@<TRIPOS>BOND
     1    21    20 3   
     2    20    19 1   
     3    18    19 2   
     4    18    17 1   
     5    19    10 1   
     6     5     4 1   
     7     4     6 ar  
     8     4     3 ar  
     9     6     7 ar  
    10    17    16 1   
    11     3     2 ar  
    12    10    16 ar  
    13    10     9 ar  
    14     7     8 ar  
    15     2     8 ar  
    16     2     1 1   
    17     8     9 1   
    18    16    15 ar  
    19     9    11 ar  
    20    15    12 ar  
    21    11    12 ar  
    22    12    13 1   
    23    14    13 1   
    24     1    22 1   
    25     1    23 1   
    26     1    24 1   
    27     3    25 1   
    28     5    26 1   
    29     5    27 1   
    30     5    28 1   
    31     6    29 1   
    32     7    30 1   
    33    14    31 1   
    34    14    32 1   
    35    14    33 1   
    36    17    34 1   
    37    18    35 1   
@<TRIPOS>SUBSTRUCTURE
     1 2N6         1 TEMP              0 ****  ****    0 ROOT
