@<TRIPOS>MOLECULE
2N6
   35    37     1     0     0
SMALL
bcc


@<TRIPOS>ATOM
      1 C19          0.0000     0.0000     0.0000 c3         1 2N6       0.027200
      2 C17          1.5070     0.0000     0.0000 ca         1 2N6      -0.011300
      3 C16          2.1980     0.0000     1.1940 ca         1 2N6      -0.111000
      4 C15          3.5820    -0.0060     1.1960 ca         1 2N6      -0.026300
      5 C18          4.3300    -0.0050     2.5040 c3         1 2N6       0.017200
      6 C14          4.2810    -0.0100     0.0020 ca         1 2N6      -0.149000
      7 C13          3.5990    -0.0100    -1.1990 ca         1 2N6      -0.103000
      8 C5           2.2050    -0.0040    -1.2070 cp         1 2N6      -0.167500
      9 C4           1.4700    -0.0090    -2.4920 cp         1 2N6       0.562800
     10 C8           1.7170     0.9690    -3.4660 ca         1 2N6      -0.324400
     11 N1           0.5600    -0.9470    -2.7540 nb         1 2N6      -0.603000
     12 C2          -0.0990    -0.9540    -3.9040 ca         1 2N6       0.752300
     13 S6          -1.2910    -2.2200    -4.1900 ss         1 2N6      -0.406400
     14 C7          -1.8540    -1.7530    -5.8460 c3         1 2N6       0.092000
     15 N3           0.1020    -0.0450    -4.8450 nb         1 2N6      -0.648000
     16 C9           0.9950     0.9250    -4.6730 ca         1 2N6       0.287800
     17 N10          1.4190     1.9770    -5.4430 na         1 2N6       0.242900
     18 C11          2.3760     2.6910    -4.7890 cc         1 2N6      -0.236100
     19 C12          2.6120     2.1310    -3.5680 cd         1 2N6       0.055100
     20 C20          3.5450     2.5850    -2.5820 ch         1 2N6       0.234500
     21 N21          4.2840     2.9640    -1.8050 n1         1 2N6      -0.393800
     22 H1          -0.6010    -0.8730     0.2260 hc         1 2N6       0.009367
     23 H2          -0.3180     0.1950    -1.0170 hc         1 2N6       0.009367
     24 H3          -0.5490     0.8470     0.3940 hc         1 2N6       0.009367
     25 H4           1.5700    -0.3110     2.0200 ha         1 2N6       0.117000
     26 H5           4.5280     0.9620     2.9510 hc         1 2N6       0.023367
     27 H6           4.2160    -1.0240     2.8550 hc         1 2N6       0.023367
     28 H7           5.2890    -0.3630     2.1490 hc         1 2N6       0.023367
     29 H8           5.2440     0.3030    -0.3820 ha         1 2N6       0.132000
     30 H9           4.3510    -0.1420    -1.9670 ha         1 2N6       0.116000
     31 H10         -2.4800    -1.0070    -5.3720 h1         1 2N6       0.057033
     32 H11         -1.1850    -1.7820    -6.6970 h1         1 2N6       0.057033
     33 H12         -2.7590    -2.3480    -5.8180 h1         1 2N6       0.057033
     34 H13          1.3390     2.2180    -6.4110 hn         1 2N6       0.129700
     35 H14          2.6320     3.5520    -5.3940 h4         1 2N6       0.146000
@<TRIPOS>BOND
     1     1     2 1   
     2     1    22 1   
     3     1    23 1   
     4     1    24 1   
     5     2     3 ar  
     6     2     8 ar  
     7     3     4 ar  
     8     3    25 1   
     9     4     5 1   
    10     4     6 ar  
    11     5    26 1   
    12     5    27 1   
    13     5    28 1   
    14     6     7 ar  
    15     6    29 1   
    16     7     8 ar  
    17     7    30 1   
    18     8     9 1   
    19     9    10 ar  
    20     9    11 ar  
    21    10    16 ar  
    22    10    19 1   
    23    11    12 ar  
    24    12    13 1   
    25    12    15 ar  
    26    13    14 1   
    27    14    31 1   
    28    14    32 1   
    29    14    33 1   
    30    15    16 ar  
    31    16    17 1   
    32    17    18 1   
    33    17    34 1   
    34    18    19 2   
    35    18    35 1   
    36    19    20 1   
    37    20    21 3   
@<TRIPOS>SUBSTRUCTURE
     1 2N6         1 TEMP              0 ****  ****    0 ROOT
