@<TRIPOS>MOLECULE
2N8
   48    50     1     0     0
SMALL
bcc


@<TRIPOS>ATOM
      1 O29         0.5590    0.6970    0.9190 o         1 2N8     -0.647300
      2 S27         1.9370    0.7500    0.6530 sy        1 2N8      1.389300
      3 O30         2.7840    0.8800    1.7550 o         1 2N8     -0.647300
      4 C28         2.3720   -0.6100   -0.2500 c3        1 2N8     -0.369300
      5 C23         2.2180    1.9830   -0.4820 ca        1 2N8     -0.356500
      6 C22         1.0990    2.7150   -0.9130 ca        1 2N8     -0.021000
      7 C21         1.2150    3.7730   -1.8070 ca        1 2N8     -0.146000
      8 C24         3.4680    2.3590   -0.9940 ca        1 2N8      0.126400
      9 CL26        4.8780    1.5240   -0.5480 cl        1 2N8     -0.061400
     10 C25         3.6020    3.4240   -1.8900 ca        1 2N8     -0.153000
     11 C10         2.4740    4.1390   -2.2990 ca        1 2N8     -0.027300
     12 C9          2.6140    5.2710   -3.2680 c3        1 2N8     -0.100400
     13 C8          2.0780    4.8950   -4.6460 c3        1 2N8     -0.064400
     14 C3          2.9960    3.9250   -5.3640 c3        1 2N8     -0.069700
     15 C4          2.3290    3.3640   -6.6260 c3        1 2N8     -0.076400
     16 C5          3.3970    3.2760   -7.7040 c3        1 2N8     -0.189400
     17 C1          4.5800    4.0650   -7.2070 c         1 2N8      0.574100
     18 O6          5.6140    4.2720   -7.8400 o         1 2N8     -0.521100
     19 C2          4.3090    4.5670   -5.8110 c3        1 2N8     -0.193400
     20 C11         1.8680    6.5080   -2.7460 c         1 2N8      0.669100
     21 O13         0.8990    6.9860   -3.3590 o         1 2N8     -0.577100
     22 N14         2.3770    7.0540   -1.5760 n         1 2N8     -0.539400
     23 C15         1.8510    8.1570   -0.8780 ca        1 2N8      0.408900
     24 N16         2.3260    8.3780    0.3940 nb        1 2N8     -0.681000
     25 C17         1.8390    9.4480    1.0390 ca        1 2N8      0.312900
     26 C18         0.8820   10.3200    0.4600 ca        1 2N8      0.251900
     27 N19         0.4080   10.1130   -0.7830 nb        1 2N8     -0.609000
     28 C20         0.8790    9.0490   -1.4540 ca        1 2N8      0.272900
     29 H1          1.7170   -1.4840    0.0020 h1        1 2N8      0.121700
     30 H2          2.2910   -0.4790   -1.3560 h1        1 2N8      0.121700
     31 H3          3.4230   -0.9380   -0.0480 h1        1 2N8      0.121700
     32 H4          0.0980    2.4420   -0.5240 ha        1 2N8      0.179000
     33 H5          0.3190    4.3290   -2.1280 ha        1 2N8      0.160000
     34 H6          4.5990    3.6970   -2.2750 ha        1 2N8      0.156000
     35 H7          3.7050    5.5430   -3.3800 hc        1 2N8      0.085700
     36 H8          1.0600    4.4380   -4.5320 hc        1 2N8      0.070200
     37 H9          1.9530    5.8300   -5.2550 hc        1 2N8      0.070200
     38 H10         3.2310    3.0730   -4.6670 hc        1 2N8      0.055700
     39 H11         1.4980    4.0370   -6.9590 hc        1 2N8      0.053700
     40 H12         1.8840    2.3600   -6.4180 hc        1 2N8      0.053700
     41 H13         3.7100    2.2160   -7.8860 hc        1 2N8      0.080200
     42 H14         3.0370    3.6940   -8.6780 hc        1 2N8      0.080200
     43 H15         4.2340    5.6850   -5.8330 hc        1 2N8      0.076200
     44 H16         5.1520    4.2950   -5.1290 hc        1 2N8      0.076200
     45 H17         3.0970    6.5400   -1.1100 hn        1 2N8      0.337500
     46 H18         2.2280    9.6140    2.0590 h4        1 2N8      0.037100
     47 H19         0.4940   11.1940    1.0060 h4        1 2N8      0.038100
     48 H20         0.4740    8.8930   -2.4710 h4        1 2N8      0.070100
@<TRIPOS>BOND
     1    1    2 2   
     2    2    3 2   
     3    2    4 1   
     4    2    5 1   
     5    4   29 1   
     6    4   30 1   
     7    4   31 1   
     8    5    6 ar  
     9    5    8 ar  
    10    6    7 ar  
    11    6   32 1   
    12    7   11 ar  
    13    7   33 1   
    14    8    9 1   
    15    8   10 ar  
    16   10   11 ar  
    17   10   34 1   
    18   11   12 1   
    19   12   13 1   
    20   12   20 1   
    21   12   35 1   
    22   13   14 1   
    23   13   36 1   
    24   13   37 1   
    25   14   15 1   
    26   14   19 1   
    27   14   38 1   
    28   15   16 1   
    29   15   39 1   
    30   15   40 1   
    31   16   17 1   
    32   16   41 1   
    33   16   42 1   
    34   17   18 2   
    35   17   19 1   
    36   19   43 1   
    37   19   44 1   
    38   20   21 2   
    39   20   22 1   
    40   22   23 1   
    41   22   45 1   
    42   23   24 ar  
    43   23   28 ar  
    44   24   25 ar  
    45   25   26 ar  
    46   25   46 1   
    47   26   27 ar  
    48   26   47 1   
    49   27   28 ar  
    50   28   48 1   
@<TRIPOS>SUBSTRUCTURE
     1 2N8         1 TEMP              0 ****  ****    0 ROOT
