@<TRIPOS>MOLECULE
molecule
   28    29     1     0     0
SMALL
bcc


@<TRIPOS>ATOM
      1 CAA          0.0000     0.0000     0.0000 c3         1 2N9      -0.096100
      2 CAD          6.6730    -0.0930     7.0490 ca         1 2N9      -0.105000
      3 CAE          7.5780    -0.2190     6.0000 ca         1 2N9      -0.138000
      4 CAF          5.3360     0.0220     6.8130 ca         1 2N9      -0.175300
      5 CAG          7.1490    -0.2240     4.7060 ca         1 2N9      -0.090000
      6 CAH          3.0710     0.1240     4.0200 ca         1 2N9       0.476200
      7 CAI          1.5300     0.0000     0.0000 c3         1 2N9       0.148400
      8 CAL          3.3510     0.0010     1.5440 c          1 2N9       0.655700
      9 CAM          5.2990    -0.1090     3.0970 ca         1 2N9       0.294600
     10 CAN          3.9140     0.0010     2.9030 ca         1 2N9      -0.294900
     11 CAO          4.8570     0.0150     5.4930 ca         1 2N9       0.444600
     12 CAP          5.7810    -0.1010     4.4280 ca         1 2N9      -0.195300
     13 NAJ          3.5450     0.1280     5.2400 nb         1 2N9      -0.700000
     14 OAC          4.0910     0.0010     0.5800 o          1 2N9      -0.545000
     15 OAK          2.0140     0.0000     1.3680 os         1 2N9      -0.434900
     16 H1          -0.3610    -0.0090    -1.0210 hc         1 2N9       0.047700
     17 H2          -0.3610    -0.8800     0.5180 hc         1 2N9       0.047700
     18 H3          -0.3610     0.8890     0.5030 hc         1 2N9       0.047700
     19 H4           7.0360    -0.0920     8.0700 ha         1 2N9       0.134000
     20 H5           8.6360    -0.3090     6.2130 ha         1 2N9       0.133000
     21 H6           4.6440     0.1190     7.6410 ha         1 2N9       0.151000
     22 H7           7.8620    -0.3230     3.8960 ha         1 2N9       0.141000
     23 H8           2.0020     0.2190     3.8680 h4         1 2N9       0.040100
     24 H9           1.8910    -0.8840    -0.5110 h1         1 2N9       0.048700
     25 H10          1.8910     0.8840    -0.5110 h1         1 2N9       0.048700
     26 H11          6.5670     0.5990     1.6250 hn         1 2N9       0.445800
     27 H12          6.3950    -1.1260     1.6690 hn         1 2N9       0.445800
     28 NAB          6.1600    -0.2220     2.0290 nv         1 2N9      -0.974200
@<TRIPOS>BOND
     1    15     8 1
     2    15     7 1
     3     6    13 ar
     4     6    10 ar
     5    14     8 2
     6     8    10 1
     7    13    11 ar
     8     7     1 1
     9    10     9 ar
    10    11     4 ar
    11    11    12 ar
    12     9    12 ar
    13     9    28 1
    14     4     2 ar
    15    12     5 ar
    16     2     3 ar
    17     5     3 ar
    18     1    16 1
    19     1    17 1
    20     1    18 1
    21     2    19 1
    22     3    20 1
    23     4    21 1
    24     5    22 1
    25     6    23 1
    26     7    24 1
    27     7    25 1
    28    28    26 1
    29    28    27 1
@<TRIPOS>SUBSTRUCTURE
     1 2N9         1 TEMP              0 ****  ****    0 ROOT
