@<TRIPOS>MOLECULE
2NA
   22    23     1     0     0
SMALL
bcc


@<TRIPOS>ATOM
      1 C1         -0.0230   -0.0700   -0.0360 ca        1 2NA     -0.036000
      2 C2          1.3960   -0.0480   -0.0640 ca        1 2NA     -0.121000
      3 C3          2.1180    0.1570    1.0920 ca        1 2NA     -0.082300
      4 C4          1.4430    0.3540    2.3250 ca        1 2NA     -0.101000
      5 C5          0.0710    0.3390    2.3740 ca        1 2NA     -0.123000
      6 C6         -0.6960    0.1260    1.1970 ca        1 2NA     -0.035000
      7 C7         -2.1180    0.1040    1.2220 ca        1 2NA     -0.117000
      8 C8         -2.8320   -0.1040    0.0680 ca        1 2NA     -0.128000
      9 C9         -2.1600   -0.2990   -1.1640 ca        1 2NA     -0.129000
     10 C30        -0.7890   -0.2830   -1.2160 ca        1 2NA     -0.118000
     11 C31         3.6110    0.1490    1.0320 c3        1 2NA      0.175700
     12 O31         4.1380    0.6710    2.2430 oh        1 2NA     -0.597800
     13 H2          1.9070   -0.1980   -1.0270 ha        1 2NA      0.130000
     14 H4          2.0430    0.5230    3.2330 ha        1 2NA      0.154000
     15 H5         -0.4570    0.4930    3.3270 ha        1 2NA      0.134000
     16 H7         -2.6300    0.2570    2.1840 ha        1 2NA      0.132000
     17 H8         -3.9310   -0.1210    0.0840 ha        1 2NA      0.131000
     18 H9         -2.7550   -0.4630   -2.0750 ha        1 2NA      0.131000
     19 H30        -0.2580   -0.4330   -2.1690 ha        1 2NA      0.131000
     20 H31         3.9750   -0.9070    0.8880 h1        1 2NA      0.032200
     21 H31A        3.9650    0.7740    0.1650 h1        1 2NA      0.032200
     22 HO31        5.0980    0.6570    2.1450 ho        1 2NA      0.403000
@<TRIPOS>BOND
     1    1    2 ar  
     2    1    6 ar  
     3    1   10 ar  
     4    2    3 ar  
     5    2   13 1   
     6    3    4 ar  
     7    3   11 1   
     8    4    5 ar  
     9    4   14 1   
    10    5    6 ar  
    11    5   15 1   
    12    6    7 ar  
    13    7    8 ar  
    14    7   16 1   
    15    8    9 ar  
    16    8   17 1   
    17    9   10 ar  
    18    9   18 1   
    19   10   19 1   
    20   11   12 1   
    21   11   20 1   
    22   11   21 1   
    23   12   22 1   
@<TRIPOS>SUBSTRUCTURE
     1 2NA         1 TEMP              0 ****  ****    0 ROOT
