@<TRIPOS>MOLECULE
molecule
   22    23     1     0     0
SMALL
bcc


@<TRIPOS>ATOM
      1 C1           0.0000     0.0000     0.0000 ca         1 2NA      -0.039000
      2 C2           1.4050     0.0000     0.0000 ca         1 2NA      -0.092000
      3 C3           2.0770     0.0000     1.1830 ca         1 2NA      -0.085300
      4 C4           1.3950    -0.0010     2.3980 ca         1 2NA      -0.107000
      5 C5           0.0340    -0.0020     2.4360 ca         1 2NA      -0.119000
      6 C6          -0.6950    -0.0010     1.2350 ca         1 2NA      -0.030000
      7 C7          -2.1010    -0.0010     1.2350 ca         1 2NA      -0.117000
      8 C8          -2.7740    -0.0000     0.0530 ca         1 2NA      -0.124000
      9 C9          -2.0900     0.0010    -1.1630 ca         1 2NA      -0.128000
     10 C30         -0.7310     0.0050    -1.2010 ca         1 2NA      -0.113000
     11 C31          3.5850     0.0010     1.1800 c3         1 2NA       0.186700
     12 O31          4.0610     1.3480     1.1790 oh         1 2NA      -0.603800
     13 H2           1.9500     0.0010    -0.9360 ha         1 2NA       0.135000
     14 H4           1.9550    -0.0010     3.3250 ha         1 2NA       0.131000
     15 H5          -0.4840    -0.0030     3.3870 ha         1 2NA       0.133000
     16 H7          -2.6460    -0.0020     2.1710 ha         1 2NA       0.132000
     17 H8          -3.8570    -0.0040     0.0550 ha         1 2NA       0.128000
     18 H9          -2.6500     0.0010    -2.0900 ha         1 2NA       0.128000
     19 H30         -0.2130     0.0060    -2.1530 ha         1 2NA       0.132000
     20 H31          3.9490    -0.5100     2.0630 h1         1 2NA       0.025200
     21 H31A         3.9440    -0.5090     0.2940 h1         1 2NA       0.025200
     22 HO31         5.0040     1.3480     1.1770 ho         1 2NA       0.401000
@<TRIPOS>BOND
     1     1     2 ar
     2     1     6 ar
     3     1    10 ar
     4     2     3 ar
     5     3     4 ar
     6     3    11 1
     7     4     5 ar
     8     5     6 ar
     9     6     7 ar
    10     7     8 ar
    11     8     9 ar
    12     9    10 ar
    13    11    12 1
    14     2    13 1
    15     4    14 1
    16     5    15 1
    17     7    16 1
    18     8    17 1
    19     9    18 1
    20    10    19 1
    21    11    20 1
    22    11    21 1
    23    12    22 1
@<TRIPOS>SUBSTRUCTURE
     1 2NA         1 TEMP              0 ****  ****    0 ROOT
