@<TRIPOS>MOLECULE
2NB
   21    22     1     0     0
SMALL
bcc


@<TRIPOS>ATOM
      1 OAB          0.0000     0.0000     0.0000 o          1 2NB      -0.448000
      2 NAN          1.2180     0.0000     0.0000 no         1 2NB       1.059200
      3 OAC          1.8280     0.0000     1.0550 o          1 2NB      -0.448000
      4 CAK          1.9590    -0.0060    -1.2820 ca         1 2NB      -0.588500
      5 CAH          3.1360     0.7180    -1.4100 ca         1 2NB       0.482200
      6 NAI          3.8190     0.7370    -2.5310 nb         1 2NB      -0.573000
      7 CAL          3.4170     0.0570    -3.6110 ca         1 2NB       0.413600
      8 CAF          4.1610     0.0870    -4.8030 ca         1 2NB      -0.151300
      9 CAD          3.7270    -0.6160    -5.8860 ca         1 2NB      -0.068000
     10 CAE          2.5550    -1.3670    -5.8350 ca         1 2NB      -0.098000
     11 CAG          1.8100    -1.4180    -4.6950 ca         1 2NB      -0.065000
     12 CAM          2.2260    -0.7070    -3.5610 ca         1 2NB      -0.193300
     13 CAJ          1.4830    -0.7390    -2.3570 ca         1 2NB       0.191600
     14 NAA          0.3140    -1.4770    -2.2590 nv         1 2NB      -0.559200
     15 H1           3.5010     1.2850    -0.5620 h4         1 2NB      -0.001900
     16 H2           5.0740     0.6660    -4.8610 ha         1 2NB       0.124000
     17 H3           4.3030    -0.5900    -6.8030 ha         1 2NB       0.107000
     18 H4           2.2330    -1.9160    -6.7110 ha         1 2NB       0.108000
     19 H5           0.9000    -2.0050    -4.6660 ha         1 2NB       0.113000
     20 H6           0.3450    -2.4230    -1.9330 hn         1 2NB       0.297300
     21 H7          -0.5580    -1.0720    -2.5350 hn         1 2NB       0.297300
@<TRIPOS>BOND
     1     1     2 1   
     2     2     3 1   
     3     2     4 1   
     4     4     5 ar  
     5     4    13 ar  
     6     5     6 ar  
     7     5    15 1   
     8     6     7 ar  
     9     7     8 ar  
    10     7    12 ar  
    11     8     9 ar  
    12     8    16 1   
    13     9    10 ar  
    14     9    17 1   
    15    10    11 ar  
    16    10    18 1   
    17    11    12 ar  
    18    11    19 1   
    19    12    13 ar  
    20    13    14 1   
    21    14    20 1   
    22    14    21 1   
@<TRIPOS>SUBSTRUCTURE
     1 2NB         1 TEMP              0 ****  ****    0 ROOT
