@<TRIPOS>MOLECULE
molecule
   21    22     1     0     0
SMALL
bcc


@<TRIPOS>ATOM
      1 OAB          0.0000     0.0000     0.0000 o          1 2NB      -0.201000
      2 NAN          1.2180     0.0000     0.0000 no         1 2NB       0.301200
      3 OAC          1.8280     0.0000     1.0550 o          1 2NB      -0.201000
      4 CAK          1.9590    -0.0060    -1.2820 ca         1 2NB      -0.308500
      5 CAH          3.1360     0.7180    -1.4100 ca         1 2NB       0.479200
      6 NAI          3.8190     0.7370    -2.5310 nb         1 2NB      -0.676000
      7 CAL          3.4170     0.0570    -3.6110 ca         1 2NB       0.444600
      8 CAF          4.1610     0.0870    -4.8030 ca         1 2NB      -0.173300
      9 CAD          3.7270    -0.6160    -5.8860 ca         1 2NB      -0.098000
     10 CAE          2.5550    -1.3670    -5.8350 ca         1 2NB      -0.130000
     11 CAG          1.8100    -1.4180    -4.6950 ca         1 2NB      -0.089000
     12 CAM          2.2260    -0.7070    -3.5610 ca         1 2NB      -0.189300
     13 CAJ          1.4830    -0.7390    -2.3570 ca         1 2NB       0.291600
     14 NAA          0.3140    -1.4770    -2.2590 nv         1 2NB      -0.984200
     15 H1           3.5010     1.2850    -0.5620 h4         1 2NB       0.049100
     16 H2           5.0740     0.6660    -4.8610 ha         1 2NB       0.157000
     17 H3           4.3030    -0.5900    -6.8030 ha         1 2NB       0.140000
     18 H4           2.2330    -1.9160    -6.7110 ha         1 2NB       0.139000
     19 H5           0.9000    -2.0050    -4.6660 ha         1 2NB       0.145000
     20 H6           0.3450    -2.4230    -1.9330 hn         1 2NB       0.451800
     21 H7          -0.5580    -1.0720    -2.5350 hn         1 2NB       0.451800
@<TRIPOS>BOND
     1    10    11 ar
     2    10     9 ar
     3    11    12 ar
     4     9     8 ar
     5    14    13 1
     6    12    13 ar
     7    12     7 ar
     8     8     7 ar
     9    13     4 ar
    10     7     6 ar
    11     4     2 1
    12     4     5 ar
    13     6     5 ar
    14     1     2 1
    15     2     3 1
    16     5    15 1
    17     8    16 1
    18     9    17 1
    19    10    18 1
    20    11    19 1
    21    14    20 1
    22    14    21 1
@<TRIPOS>SUBSTRUCTURE
     1 2NB         1 TEMP              0 ****  ****    0 ROOT
