@<TRIPOS>MOLECULE
molecule
   30    32     1     0     0
SMALL
bcc


@<TRIPOS>ATOM
      1 O6           0.0000     0.0000     0.0000 o          1 2ND      -0.607500
      2 C6           1.2200     0.0000     0.0000 c          1 2ND       0.621000
      3 N1           1.9130     0.0000     1.1600 ns         1 2ND      -0.470400
      4 C2           3.2700     0.0000     1.1490 cc         1 2ND       0.509800
      5 N3           3.9550    -0.0010     0.0400 nd         1 2ND      -0.651100
      6 C4           3.3440    -0.0080    -1.1550 cd         1 2ND       0.071800
      7 C5           1.9480    -0.0010    -1.2150 cc         1 2ND       0.224800
      8 N7           1.6020    -0.0020    -2.5240 nc         1 2ND      -0.632000
      9 C8           2.6800    -0.0030    -3.2530 cd         1 2ND       0.436400
     10 N9           3.7820    -0.0030    -2.4500 na         1 2ND      -0.184900
     11 C1'          5.1780    -0.0040    -2.8940 c3         1 2ND       0.254800
     12 O4'          5.2680     0.5350    -4.2230 os         1 2ND      -0.399600
     13 C2'          5.7120    -1.4490    -2.9490 c3         1 2ND      -0.153400
     14 C3'          6.1580    -1.6360    -4.4210 c3         1 2ND       0.111100
     15 O3'          7.3920    -2.3540    -4.4930 oh         1 2ND      -0.591800
     16 C4'          6.3370    -0.1700    -4.8920 c3         1 2ND       0.140100
     17 C5'          6.1800    -0.0700    -6.4110 c3         1 2ND       0.149400
     18 O5'          6.4140     1.2780    -6.8260 oh         1 2ND      -0.597800
     19 HN1          1.4230     0.0010     2.0330 hn         1 2ND       0.342500
     20 H2           3.8020     0.0000     2.0930 h5         1 2ND       0.062800
     21 H8           2.6990    -0.0030    -4.3360 h5         1 2ND       0.083100
     22 H1'          5.7850     0.5850    -2.2170 h2         1 2ND       0.094700
     23 H2'1         6.5570    -1.5640    -2.2810 hc         1 2ND       0.080200
     24 H2'2         4.9260    -2.1520    -2.7010 hc         1 2ND       0.080200
     25 H3'          5.3840    -2.1300    -4.9950 h1         1 2ND       0.052700
     26 H1           7.2200    -3.2540    -4.7140 ho         1 2ND       0.411000
     27 H4'          7.2990     0.2140    -4.5770 h1         1 2ND       0.085700
     28 H5'1         6.8950    -0.7250    -6.8920 h1         1 2ND       0.034200
     29 H5'2         5.1750    -0.3640    -6.6900 h1         1 2ND       0.034200
     30 H5'          6.3830     1.3270    -7.7670 ho         1 2ND       0.407000
@<TRIPOS>BOND
     1     1     2 2   
     2     2     3 1   
     3     2     7 1   
     4     3     4 1   
     5     3    19 1   
     6     4     5 2   
     7     4    20 1   
     8     5     6 1   
     9     6     7 2   
    10     6    10 1   
    11     7     8 1   
    12     8     9 2   
    13     9    10 1   
    14     9    21 1   
    15    10    11 1   
    16    11    12 1   
    17    11    13 1   
    18    11    22 1   
    19    12    16 1   
    20    13    14 1   
    21    13    23 1   
    22    13    24 1   
    23    14    15 1   
    24    14    16 1   
    25    14    25 1   
    26    15    26 1   
    27    16    17 1   
    28    16    27 1   
    29    17    18 1   
    30    17    28 1   
    31    17    29 1   
    32    18    30 1   
@<TRIPOS>SUBSTRUCTURE
     1 2ND         1 TEMP              0 ****  ****    0 ROOT
