@<TRIPOS>MOLECULE
2NG
   57    60     1     0     0
SMALL
bcc


@<TRIPOS>ATOM
      1 OAI          0.0000     0.0000     0.0000 o          1 2NG      -0.668200
      2 SBN          1.5220     0.0000     0.0000 s6         1 2NG       1.050100
      3 OAF          1.9230     0.0000     1.3630 o          1 2NG      -0.668200
      4 OAG          1.9230    -0.9980    -0.9280 o          1 2NG      -0.668200
      5 CBI          2.0440     1.5430    -0.6720 ca         1 2NG      -0.111500
      6 CBK          1.9050     2.7220     0.0780 ca         1 2NG       0.004000
      7 CAR          2.5880     1.5970    -1.9180 ca         1 2NG      -0.029000
      8 CAM          3.0070     2.8080    -2.4660 ca         1 2NG      -0.171000
      9 CAU          2.8830     3.9720    -1.7700 ca         1 2NG      -0.077000
     10 CBJ          2.3290     3.9540    -0.4780 ca         1 2NG       0.021000
     11 CBH          2.1910     5.1340     0.2710 ca         1 2NG      -0.106500
     12 SBM          2.7130     6.6750    -0.4070 s6         1 2NG       1.041100
     13 OAH          1.5540     7.2840    -0.9580 o          1 2NG      -0.669533
     14 OAE          3.1490     7.5540     0.7570 o          1 2NG      -0.669533
     15 OAD          3.8840     6.4020    -1.1650 o          1 2NG      -0.669533
     16 CAT          1.6510     5.0880     1.5210 ca         1 2NG      -0.001000
     17 CAS          1.2300     3.8840     2.0770 ca         1 2NG      -0.152000
     18 CBF          1.3500     2.7030     1.3750 ca         1 2NG      -0.044400
     19 NAY          0.9250     1.5010     1.9420 ns         1 2NG      -0.054100
     20 CBA          1.2240     1.2190     3.2250 c          1 2NG       0.618700
     21 OAC          1.9480     1.9620     3.8590 o          1 2NG      -0.706100
     22 CBD          0.6720     0.0040     3.8620 ca         1 2NG      -0.067600
     23 CAV          0.8780    -0.2270     5.2230 ca         1 2NG      -0.074000
     24 CAQ         -0.0610    -0.9120     3.1060 ca         1 2NG      -0.072000
     25 CAO         -0.5740    -2.0450     3.7030 ca         1 2NG      -0.107000
     26 CBB         -0.3660    -2.2770     5.0490 ca         1 2NG      -0.147300
     27 CAA         -0.9300    -3.5180     5.6930 c3         1 2NG       0.071200
     28 CBE          0.3520    -1.3660     5.8140 ca         1 2NG      -0.151400
     29 NAX          0.5610    -1.6060     7.1760 ns         1 2NG      -0.005100
     30 CAZ          1.6390    -1.0860     7.7950 c          1 2NG       0.548700
     31 OAB          2.3940    -0.3530     7.1860 o          1 2NG      -0.591100
     32 CBC          1.9030    -1.4070     9.2140 ca         1 2NG      -0.152600
     33 CAW          3.0190    -0.8690     9.8570 ca         1 2NG       0.054000
     34 CAN          1.0340    -2.2430     9.9160 ca         1 2NG      -0.036000
     35 CAL          1.2870    -2.5390    11.2410 ca         1 2NG      -0.135000
     36 CAP          2.3990    -2.0080    11.8710 ca         1 2NG      -0.012000
     37 CBG          3.2600    -1.1740    11.1810 ca         1 2NG      -0.464200
     38 NBL          4.4460    -0.6100    11.8640 no         1 2NG       1.049200
     39 OAK          4.6630    -0.8810    13.0320 o          1 2NG      -0.453000
     40 OAJ          5.2060     0.1250    11.2580 o          1 2NG      -0.453000
     41 H1           2.6980     0.6860    -2.4930 ha         1 2NG       0.108000
     42 H2           3.4370     2.8240    -3.4600 ha         1 2NG       0.078000
     43 H3           3.2120     4.9060    -2.2090 ha         1 2NG       0.165000
     44 H4           1.5460     6.0040     2.0900 ha         1 2NG       0.111000
     45 H5           0.8030     3.8750     3.0730 ha         1 2NG       0.107000
     46 H6           0.3340     0.8850     1.4200 hn         1 2NG       0.275500
     47 H7           1.4380     0.4850     5.8170 ha         1 2NG       0.173000
     48 H8          -0.2260    -0.7340     2.0500 ha         1 2NG       0.179000
     49 H9          -1.1430    -2.7550     3.1140 ha         1 2NG       0.098000
     50 H10         -1.6600    -3.2370     6.4420 hc         1 2NG      -0.007300
     51 H11         -0.1290    -4.0770     6.1620 hc         1 2NG      -0.007300
     52 H12         -1.4050    -4.1330     4.9380 hc         1 2NG      -0.007300
     53 H13         -0.0360    -2.2430     7.6670 hn         1 2NG       0.154500
     54 H14          3.6950    -0.2160     9.3180 ha         1 2NG       0.164000
     55 H15          0.1640    -2.6590     9.4240 ha         1 2NG       0.109000
     56 H16          0.6150    -3.1900    11.7870 ha         1 2NG       0.108000
     57 H17          2.5930    -2.2430    12.9100 ha         1 2NG       0.124000
@<TRIPOS>BOND
     1     1     2 1   
     2     2     3 1   
     3     2     4 1   
     4     2     5 1   
     5     5     6 ar  
     6     5     7 ar  
     7     6    10 ar  
     8     6    18 ar  
     9     7     8 ar  
    10     7    41 1   
    11     8     9 ar  
    12     8    42 1   
    13     9    10 ar  
    14     9    43 1   
    15    10    11 ar  
    16    11    12 1   
    17    11    16 ar  
    18    12    13 1   
    19    12    14 1   
    20    12    15 1   
    21    16    17 ar  
    22    16    44 1   
    23    17    18 ar  
    24    17    45 1   
    25    18    19 1   
    26    19    20 1   
    27    19    46 1   
    28    20    21 2   
    29    20    22 1   
    30    22    23 ar  
    31    22    24 ar  
    32    23    28 ar  
    33    23    47 1   
    34    24    25 ar  
    35    24    48 1   
    36    25    26 ar  
    37    25    49 1   
    38    26    27 1   
    39    26    28 ar  
    40    27    50 1   
    41    27    51 1   
    42    27    52 1   
    43    28    29 1   
    44    29    30 1   
    45    29    53 1   
    46    30    31 2   
    47    30    32 1   
    48    32    33 ar  
    49    32    34 ar  
    50    33    37 ar  
    51    33    54 1   
    52    34    35 ar  
    53    34    55 1   
    54    35    36 ar  
    55    35    56 1   
    56    36    37 ar  
    57    36    57 1   
    58    37    38 1   
    59    38    39 1   
    60    38    40 1   
@<TRIPOS>SUBSTRUCTURE
     1 2NG         1 TEMP              0 ****  ****    0 ROOT
