@<TRIPOS>MOLECULE
2NI
   40    43     1     0     0
SMALL
bcc


@<TRIPOS>ATOM
      1 C1           0.0000     0.0000     0.0000 ca         1 2NI      -0.039500
      2 C2           1.3790     0.0000     0.0000 ca         1 2NI      -0.187500
      3 C3           2.0750     0.0000     1.2020 ca         1 2NI       0.119000
      4 C4           1.3850     0.0100     2.4070 ca         1 2NI      -0.187500
      5 C5           0.0060     0.0140     2.4140 ca         1 2NI      -0.039500
      6 C6          -0.6960     0.0100     1.2090 cp         1 2NI      -0.090000
      7 C7          -2.1780     0.0140     1.2130 cq         1 2NI      -0.001000
      8 C8          -2.8750     0.7830     0.2810 ca         1 2NI      -0.101000
      9 C9          -4.2510     0.7890     0.2840 ca         1 2NI      -0.066500
     10 C10         -4.9510     0.0230     1.2210 ca         1 2NI       0.024000
     11 C11         -4.2510    -0.7480     2.1540 ca         1 2NI      -0.066500
     12 C12         -2.8750    -0.7560     2.1460 ca         1 2NI      -0.101000
     13 C13         -6.3830     0.0280     1.2260 c1         1 2NI      -0.098000
     14 N1          -7.5190     0.0510     1.2210 n1         1 2NI      -0.056000
     15 O1           3.4330    -0.0050     1.1970 os         1 2NI      -0.180000
     16 C14          3.8420    -0.0150    -0.1710 c3         1 2NI      -0.277000
     17 C15          5.3700    -0.0200    -0.2460 DU         1 2NI      -0.296000
     18 N2           5.8830    -1.2700     0.3200 nx         1 2NI       0.077000
     19 C16          6.0800    -2.4380    -0.5420 c3         1 2NI      -0.083000
     20 C17          6.1730    -1.3450     1.6340 c2         1 2NI       0.174000
     21 O2           6.5030    -2.4080     2.1240 o          1 2NI      -0.374000
     22 N3           6.0960    -0.2420     2.4060 ns         1 2NI       0.071000
     23 O3           6.4870    -0.3010     3.7660 oh         1 2NI      -0.252000
     24 H1          -0.5410    -0.0000    -0.9380 ha         1 2NI       0.109500
     25 H2           1.9200    -0.0080    -0.9380 ha         1 2NI       0.131000
     26 H4           1.9310     0.0090     3.3430 ha         1 2NI       0.131000
     27 H5          -0.5300     0.0220     3.3550 ha         1 2NI       0.109500
     28 H8          -2.3330     1.3770    -0.4450 ha         1 2NI       0.115000
     29 H9          -4.7920     1.3860    -0.4400 ha         1 2NI       0.113500
     30 H11         -4.7920    -1.3420     2.8810 ha         1 2NI       0.113500
     31 H12         -2.3320    -1.3560     2.8660 ha         1 2NI       0.115000
     32 H141         4.7220     0.6050    -0.2890 DU         1 2NI       0.100000
     33 H142         3.0420     0.3710    -0.7900 h1         1 2NI       0.194000
     34 H151         5.7770    -0.4110     0.6790 DU         1 2NI       0.198000
     35 H152         5.7280     0.9910    -0.3990 hx         1 2NI       0.167000
     36 H161         5.7630    -2.2010    -1.5500 hx         1 2NI       0.057333
     37 H162         7.1290    -2.7090    -0.5480 hx         1 2NI       0.057333
     38 H163         5.4950    -3.2680    -0.1640 hx         1 2NI       0.057333
     39 HN3          5.2310     0.2550     2.4830 hn         1 2NI       0.070000
     40 HO3          5.9160     0.2450     4.2810 ho         1 2NI       0.193000
@<TRIPOS>BOND
     1     1     2 1   
     2     1     6 1   
     3     1    24 1   
     4     2     3 1   
     5     2    25 1   
     6     3     4 1   
     7     3    15 1   
     8     4     5 1   
     9     4    26 1   
    10     5     6 1   
    11     5    27 1   
    12     6     7 1   
    13     7     8 1   
    14     7    12 1   
    15     8     9 1   
    16     8    28 1   
    17     9    10 1   
    18     9    29 1   
    19    10    11 1   
    20    10    13 1   
    21    11    12 1   
    22    11    30 1   
    23    12    31 1   
    24    13    14 1   
    25    15    16 1   
    26    16    17 1   
    27    16    32 1   
    28    16    33 1   
    29    17    18 1   
    30    17    32 1   
    31    17    34 1   
    32    17    35 1   
    33    18    19 1   
    34    18    20 1   
    35    18    34 1   
    36    19    36 1   
    37    19    37 1   
    38    19    38 1   
    39    20    21 1   
    40    20    22 1   
    41    22    23 1   
    42    22    39 1   
    43    23    40 1   
@<TRIPOS>SUBSTRUCTURE
     1 2NI         1 TEMP              0 ****  ****    0 ROOT
