@<TRIPOS>MOLECULE
molecule
   40    41     1     0     0
SMALL
bcc


@<TRIPOS>ATOM
      1 C1           0.0000     0.0000     0.0000 ca         1 2NI      -0.071000
      2 C2           1.3790     0.0000     0.0000 ca         1 2NI      -0.200000
      3 C3           2.0750     0.0000     1.2020 ca         1 2NI       0.155100
      4 C4           1.3850     0.0100     2.4070 ca         1 2NI      -0.200000
      5 C5           0.0060     0.0140     2.4140 ca         1 2NI      -0.071000
      6 C6          -0.6960     0.0100     1.2090 cp         1 2NI      -0.093000
      7 C7          -2.1780     0.0140     1.2130 cp         1 2NI      -0.004000
      8 C8          -2.8750     0.7830     0.2810 ca         1 2NI      -0.128000
      9 C9          -4.2510     0.7890     0.2840 ca         1 2NI      -0.087000
     10 C10         -4.9510     0.0230     1.2210 ca         1 2NI      -0.026000
     11 C11         -4.2510    -0.7480     2.1540 ca         1 2NI      -0.087000
     12 C12         -2.8750    -0.7560     2.1460 ca         1 2NI      -0.128000
     13 C13         -6.3830     0.0280     1.2260 cg         1 2NI       0.239800
     14 N1          -7.5190     0.0510     1.2210 n1         1 2NI      -0.364800
     15 O1           3.4330    -0.0050     1.1970 os         1 2NI      -0.328900
     16 C14          3.8420    -0.0150    -0.1710 c3         1 2NI      -0.198600
     17 C15          5.3700    -0.0200    -0.2460 c3         1 2NI      -0.248000
     18 N2           5.8830    -1.2700     0.3200 n          1 2NI      -0.428800
     19 C16          6.0800    -2.4380    -0.5420 c3         1 2NI       0.114300
     20 C17          6.1730    -1.3450     1.6340 c          1 2NI       0.714100
     21 O2           6.5030    -2.4080     2.1240 o          1 2NI      -0.561100
     22 N3           6.0960    -0.2420     2.4060 ns         1 2NI      -0.398400
     23 O3           6.4870    -0.3010     3.7660 oh         1 2NI      -0.394100
     24 H1          -0.5410    -0.0000    -0.9380 ha         1 2NI       0.137000
     25 H2           1.9200    -0.0080    -0.9380 ha         1 2NI       0.148500
     26 H4           1.9310     0.0090     3.3430 ha         1 2NI       0.148500
     27 H5          -0.5300     0.0220     3.3550 ha         1 2NI       0.137000
     28 H8          -2.3330     1.3770    -0.4450 ha         1 2NI       0.141000
     29 H9          -4.7920     1.3860    -0.4400 ha         1 2NI       0.142500
     30 H11         -4.7920    -1.3420     2.8810 ha         1 2NI       0.142500
     31 H12         -2.3320    -1.3560     2.8660 ha         1 2NI       0.141000
     32 H141         4.7220     0.6050    -0.2890 h1         1 2NI       0.164200
     33 H142         3.0420     0.3710    -0.7900 h1         1 2NI       0.164200
     34 H151         5.7770    -0.4110     0.6790 h1         1 2NI       0.229200
     35 H152         5.7280     0.9910    -0.3990 h1         1 2NI       0.229200
     36 H161         5.7630    -2.2010    -1.5500 h1         1 2NI       0.053700
     37 H162         7.1290    -2.7090    -0.5480 h1         1 2NI       0.053700
     38 H163         5.4950    -3.2680    -0.1640 h1         1 2NI       0.053700
     39 HN3          5.2310     0.2550     2.4830 hn         1 2NI       0.298500
     40 HO3          5.9160     0.2450     4.2810 ho         1 2NI       0.405000
@<TRIPOS>BOND
     1     1     2 ar
     2     1     6 ar
     3     1    24 1
     4     2     3 ar
     5     2    25 1
     6     3     4 ar
     7     3    15 1
     8     4     5 ar
     9     4    26 1
    10     5     6 ar
    11     5    27 1
    12     6     7 1
    13     7     8 ar
    14     7    12 ar
    15     8     9 ar
    16     8    28 1
    17     9    10 ar
    18     9    29 1
    19    10    11 ar
    20    10    13 1
    21    11    12 ar
    22    11    30 1
    23    12    31 1
    24    13    14 3
    25    15    16 1
    26    16    17 1
    27    16    32 1
    28    16    33 1
    29    17    18 1
    30    17    34 1
    31    17    35 1
    32    18    19 1
    33    18    20 1
    34    19    36 1
    35    19    37 1
    36    19    38 1
    37    20    21 2
    38    20    22 1
    39    22    23 1
    40    22    39 1
    41    23    40 1
@<TRIPOS>SUBSTRUCTURE
     1 2NI         1 TEMP              0 ****  ****    0 ROOT
