@<TRIPOS>MOLECULE
molecule
   35    37     1     0     0
SMALL
bcc


@<TRIPOS>ATOM
      1 O            0.0000     0.0000     0.0000 o          1 2NJ      -0.628500
      2 C9           1.2130     0.0000     0.0000 c          1 2NJ       0.697500
      3 N            1.8830     0.0000     1.1730 n          1 2NJ      -0.398000
      4 C            1.1430     0.0950     2.4330 c3         1 2NJ       0.098300
      5 C8           1.9610    -0.0050    -1.3070 c3         1 2NJ      -0.188400
      6 C7           2.5370    -1.3960    -1.5780 c3         1 2NJ       0.253800
      7 C10          3.5910    -1.3010    -2.6510 ca         1 2NJ      -0.079300
      8 C15          3.3910    -1.9150    -3.8740 ca         1 2NJ      -0.117500
      9 C14          4.3580    -1.8270    -4.8570 ca         1 2NJ      -0.129000
     10 C13          5.5260    -1.1260    -4.6180 ca         1 2NJ      -0.125000
     11 C12          5.7250    -0.5120    -3.3970 ca         1 2NJ      -0.129000
     12 C11          4.7560    -0.5950    -2.4140 ca         1 2NJ      -0.117500
     13 N1           3.1340    -1.9330    -0.3550 nu         1 2NJ      -0.734600
     14 C6           3.9070    -1.0850     0.4460 ca         1 2NJ       0.079600
     15 C1           3.2810    -0.0930     1.1940 ca         1 2NJ       0.013600
     16 C5           5.2860    -1.2120     0.4840 ca         1 2NJ      -0.090000
     17 C4           6.0370    -0.3430     1.2520 ca         1 2NJ      -0.142000
     18 C3           5.4170     0.6590     1.9780 ca         1 2NJ      -0.116000
     19 C2           4.0410     0.7790     1.9540 ca         1 2NJ      -0.142000
     20 H1           0.2330    -0.4880     2.3620 h1         1 2NJ       0.049367
     21 H2           1.7560    -0.2870     3.2410 h1         1 2NJ       0.049367
     22 H3           0.8940     1.1310     2.6280 h1         1 2NJ       0.049367
     23 H4           2.7690     0.7140    -1.2590 hc         1 2NJ       0.080700
     24 H5           1.2820     0.2630    -2.1080 hc         1 2NJ       0.080700
     25 H6           1.7420    -2.0550    -1.9070 h1         1 2NJ       0.077700
     26 H7           2.4760    -2.4640    -4.0610 ha         1 2NJ       0.135500
     27 H8           4.2020    -2.3080    -5.8150 ha         1 2NJ       0.129500
     28 H9           6.2840    -1.0590    -5.3890 ha         1 2NJ       0.129000
     29 H10          6.6390     0.0380    -3.2110 ha         1 2NJ       0.129500
     30 H11          4.9130    -0.1130    -1.4560 ha         1 2NJ       0.135500
     31 H12          2.4230    -2.3630     0.2030 hn         1 2NJ       0.383800
     32 H13          5.7740    -1.9960    -0.0830 ha         1 2NJ       0.154000
     33 H14          7.1160    -0.4350     1.2730 ha         1 2NJ       0.136000
     34 H15          6.0100     1.3380     2.5790 ha         1 2NJ       0.135000
     35 H16          3.5570     1.5640     2.5230 ha         1 2NJ       0.139000
@<TRIPOS>BOND
     1     4     3 1   
     2    19    18 ar  
     3    19    15 ar  
     4    18    17 ar  
     5     3    15 1   
     6     3     2 1   
     7    15    14 ar  
     8     1     2 2   
     9     2     5 1   
    10    17    16 ar  
    11     5     6 1   
    12    14    16 ar  
    13    14    13 1   
    14    13     6 1   
    15     6     7 1   
    16     8     7 ar  
    17     8     9 ar  
    18     7    12 ar  
    19     9    10 ar  
    20    12    11 ar  
    21    10    11 ar  
    22     4    20 1   
    23     4    21 1   
    24     4    22 1   
    25     5    23 1   
    26     5    24 1   
    27     6    25 1   
    28     8    26 1   
    29     9    27 1   
    30    10    28 1   
    31    11    29 1   
    32    12    30 1   
    33    13    31 1   
    34    16    32 1   
    35    17    33 1   
    36    18    34 1   
    37    19    35 1   
@<TRIPOS>SUBSTRUCTURE
     1 2NJ         1 TEMP              0 ****  ****    0 ROOT
