@<TRIPOS>MOLECULE
2NJ
   35    37     1     0     0
SMALL
bcc


@<TRIPOS>ATOM
      1 O            0.0000     0.0000     0.0000 o          1 2NJ      -0.665500
      2 C9           1.2130     0.0000     0.0000 c          1 2NJ       0.609500
      3 N            1.8830     0.0000     1.1730 n          1 2NJ      -0.017000
      4 C            1.1430     0.0950     2.4330 c3         1 2NJ       0.074300
      5 C8           1.9610    -0.0050    -1.3070 c3         1 2NJ      -0.139400
      6 C7           2.5370    -1.3960    -1.5780 c3         1 2NJ       0.205800
      7 C10          3.5910    -1.3010    -2.6510 ca         1 2NJ      -0.089300
      8 C15          3.3910    -1.9150    -3.8740 ca         1 2NJ      -0.099500
      9 C14          4.3580    -1.8270    -4.8570 ca         1 2NJ      -0.099500
     10 C13          5.5260    -1.1260    -4.6180 ca         1 2NJ      -0.099000
     11 C12          5.7250    -0.5120    -3.3970 ca         1 2NJ      -0.099500
     12 C11          4.7560    -0.5950    -2.4140 ca         1 2NJ      -0.099500
     13 N1           3.1340    -1.9330    -0.3550 nu         1 2NJ      -0.446600
     14 C6           3.9070    -1.0850     0.4460 ca         1 2NJ      -0.004400
     15 C1           3.2810    -0.0930     1.1940 ca         1 2NJ      -0.113400
     16 C5           5.2860    -1.2120     0.4840 ca         1 2NJ      -0.063000
     17 C4           6.0370    -0.3430     1.2520 ca         1 2NJ      -0.108000
     18 C3           5.4170     0.6590     1.9780 ca         1 2NJ      -0.085000
     19 C2           4.0410     0.7790     1.9540 ca         1 2NJ      -0.109000
     20 H1           0.2330    -0.4880     2.3620 h1         1 2NJ       0.018033
     21 H2           1.7560    -0.2870     3.2410 h1         1 2NJ       0.018033
     22 H3           0.8940     1.1310     2.6280 h1         1 2NJ       0.018033
     23 H4           2.7690     0.7140    -1.2590 hc         1 2NJ       0.050700
     24 H5           1.2820     0.2630    -2.1080 hc         1 2NJ       0.050700
     25 H6           1.7420    -2.0550    -1.9070 h1         1 2NJ       0.045700
     26 H7           2.4760    -2.4640    -4.0610 ha         1 2NJ       0.114500
     27 H8           4.2020    -2.3080    -5.8150 ha         1 2NJ       0.102000
     28 H9           6.2840    -1.0590    -5.3890 ha         1 2NJ       0.102000
     29 H10          6.6390     0.0380    -3.2110 ha         1 2NJ       0.102000
     30 H11          4.9130    -0.1130    -1.4560 ha         1 2NJ       0.114500
     31 H12          2.4230    -2.3630     0.2030 hn         1 2NJ       0.262800
     32 H13          5.7740    -1.9960    -0.0830 ha         1 2NJ       0.124000
     33 H14          7.1160    -0.4350     1.2730 ha         1 2NJ       0.108000
     34 H15          6.0100     1.3380     2.5790 ha         1 2NJ       0.106000
     35 H16          3.5570     1.5640     2.5230 ha         1 2NJ       0.113000
@<TRIPOS>BOND
     1     1     2 2   
     2     2     3 1   
     3     2     5 1   
     4     3     4 1   
     5     3    15 1   
     6     4    20 1   
     7     4    21 1   
     8     4    22 1   
     9     5     6 1   
    10     5    23 1   
    11     5    24 1   
    12     6     7 1   
    13     6    13 1   
    14     6    25 1   
    15     7     8 ar  
    16     7    12 ar  
    17     8     9 ar  
    18     8    26 1   
    19     9    10 ar  
    20     9    27 1   
    21    10    11 ar  
    22    10    28 1   
    23    11    12 ar  
    24    11    29 1   
    25    12    30 1   
    26    13    14 1   
    27    13    31 1   
    28    14    15 ar  
    29    14    16 ar  
    30    15    19 ar  
    31    16    17 ar  
    32    16    32 1   
    33    17    18 ar  
    34    17    33 1   
    35    18    19 ar  
    36    18    34 1   
    37    19    35 1   
@<TRIPOS>SUBSTRUCTURE
     1 2NJ         1 TEMP              0 ****  ****    0 ROOT
