@<TRIPOS>MOLECULE
molecule
   49    52     1     0     0
SMALL
bcc


@<TRIPOS>ATOM
      1 C1           0.0000     0.0000     0.0000 ca         1 2NK       0.438200
      2 N1           1.3170     0.0000     0.0000 nb         1 2NK      -0.692000
      3 C2           2.0190     0.0000     1.1180 ca         1 2NK       0.427200
      4 C3           1.3990     0.0010     2.3510 ca         1 2NK      -0.247300
      5 C4           0.0040     0.0010     2.4100 cp         1 2NK       0.027000
      6 C5          -0.7120     0.0010     1.1950 cq         1 2NK      -0.172300
      7 C6          -2.1940     0.0080     1.1920 cq         1 2NK       0.010000
      8 C7          -0.7040     0.0020     3.7110 cp         1 2NK      -0.094000
      9 C8          -2.8860     0.9380     0.4180 ca         1 2NK      -0.161500
     10 C9          -4.2670     0.9430     0.4170 ca         1 2NK       0.135400
     11 C10         -4.9660     0.0220     1.1870 ca         1 2NK       0.026100
     12 C11         -4.2800    -0.9050     1.9600 ca         1 2NK       0.135400
     13 C12         -2.8980    -0.9180     1.9600 ca         1 2NK      -0.161500
     14 F1          -4.9390     1.8430    -0.3340 f          1 2NK      -0.123900
     15 C13         -1.7240     0.9240     3.9510 ca         1 2NK      -0.084000
     16 C14         -2.3810     0.9220     5.1620 ca         1 2NK      -0.170500
     17 C15         -2.0290     0.0040     6.1440 ca         1 2NK       0.120600
     18 C16         -1.0130    -0.9160     5.9080 ca         1 2NK      -0.170500
     19 C17         -0.3570    -0.9220     4.6970 ca         1 2NK      -0.084000
     20 O1          -6.3270     0.0280     1.1840 oh         1 2NK      -0.497100
     21 F2          -4.9620    -1.8000     2.7090 f          1 2NK      -0.123900
     22 N2          -2.6950     0.0050     7.3700 nh         1 2NK      -0.598000
     23 C18         -4.1450    -0.1500     7.1810 c3         1 2NK       0.164300
     24 C19         -4.8450    -0.0640     8.5390 c3         1 2NK       0.160300
     25 N3          -4.3190    -1.1120     9.4260 n3         1 2NK      -0.733600
     26 C20         -2.8700    -0.9570     9.6140 c3         1 2NK       0.160300
     27 C21         -2.1690    -1.0430     8.2570 c3         1 2NK       0.164300
     28 C22         -5.0210    -1.1100    10.7160 c3         1 2NK       0.153100
     29 H1          -0.5350    -0.0000    -0.9420 h4         1 2NK       0.028100
     30 H2           3.1010    -0.0000     1.0680 h4         1 2NK       0.026100
     31 H3           1.9870     0.0010     3.2610 ha         1 2NK       0.147000
     32 H4          -2.3420     1.6560    -0.1830 ha         1 2NK       0.161000
     33 H5          -2.3630    -1.6410     2.5630 ha         1 2NK       0.161000
     34 H6          -1.9990     1.6400     3.1860 ha         1 2NK       0.137500
     35 H7          -3.1720     1.6380     5.3490 ha         1 2NK       0.142000
     36 H8          -0.7420    -1.6320     6.6740 ha         1 2NK       0.142000
     37 H9           0.4350    -1.6390     4.5130 ha         1 2NK       0.137500
     38 H10         -6.6420    -0.5400     0.5000 ho         1 2NK       0.424000
     39 H11         -4.5110     0.6410     6.5370 h1         1 2NK       0.051950
     40 H12         -4.3490    -1.1130     6.7300 h1         1 2NK       0.051950
     41 H13         -5.9110    -0.2080     8.4050 h1         1 2NK       0.043950
     42 H14         -4.6600     0.9080     8.9800 h1         1 2NK       0.043950
     43 H16         -2.5040    -1.7480    10.2590 h1         1 2NK       0.043950
     44 H17         -2.6660     0.0070    10.0650 h1         1 2NK       0.043950
     45 H18         -1.1030    -0.8980     8.3920 h1         1 2NK       0.051950
     46 H19         -2.3540    -2.0150     7.8160 h1         1 2NK       0.051950
     47 H20         -4.8620    -0.1600    11.2120 h1         1 2NK       0.033700
     48 H21         -4.6370    -1.9110    11.3370 h1         1 2NK       0.033700
     49 H22         -6.0810    -1.2580    10.5500 h1         1 2NK       0.033700
@<TRIPOS>BOND
     1    21    12 1   
     2    13    12 ar  
     3    13     7 2   
     4     2     3 ar  
     5     2     1 ar  
     6     3     4 ar  
     7     1     6 1   
     8    12    11 ar  
     9    15    16 ar  
    10    15     8 ar  
    11     4     5 ar  
    12     6     5 2   
    13     6     7 1   
    14     5     8 1   
    15    16    17 ar  
    16     7     9 1   
    17     8    19 ar  
    18    11    20 1   
    19    11    10 ar  
    20    23    24 1   
    21    23    22 1   
    22     9    10 ar  
    23    17    22 1   
    24    17    18 ar  
    25    24    25 1   
    26    10    14 1   
    27    19    18 ar  
    28    22    27 1   
    29    25    28 1   
    30    25    26 1   
    31    27    26 1   
    32     1    29 1   
    33     3    30 1   
    34     4    31 1   
    35     9    32 1   
    36    13    33 1   
    37    15    34 1   
    38    16    35 1   
    39    18    36 1   
    40    19    37 1   
    41    20    38 1   
    42    23    39 1   
    43    23    40 1   
    44    24    41 1   
    45    24    42 1   
    46    26    43 1   
    47    26    44 1   
    48    27    45 1   
    49    27    46 1   
    50    28    47 1   
    51    28    48 1   
    52    28    49 1   
@<TRIPOS>SUBSTRUCTURE
     1 2NK         1 TEMP              0 ****  ****    0 ROOT
