@<TRIPOS>MOLECULE
2NK
   49    52     1     0     0
SMALL
bcc


@<TRIPOS>ATOM
      1 C1           0.0000     0.0000     0.0000 ca         1 2NK       0.420200
      2 N1           1.3170     0.0000     0.0000 nb         1 2NK      -0.585000
      3 C2           2.0190     0.0000     1.1180 ca         1 2NK       0.411200
      4 C3           1.3990     0.0010     2.3510 ca         1 2NK      -0.217300
      5 C4           0.0040     0.0010     2.4100 cp         1 2NK       0.030000
      6 C5          -0.7120     0.0010     1.1950 cq         1 2NK      -0.165300
      7 C6          -2.1940     0.0080     1.1920 cq         1 2NK       0.013000
      8 C7          -0.7040     0.0020     3.7110 cp         1 2NK      -0.089000
      9 C8          -2.8860     0.9380     0.4180 ca         1 2NK      -0.125000
     10 C9          -4.2670     0.9430     0.4170 ca         1 2NK       0.098400
     11 C10         -4.9660     0.0220     1.1870 ca         1 2NK       0.064100
     12 C11         -4.2800    -0.9050     1.9600 ca         1 2NK       0.098400
     13 C12         -2.8980    -0.9180     1.9600 ca         1 2NK      -0.125000
     14 F1          -4.9390     1.8430    -0.3340 f          1 2NK      -0.116400
     15 C13         -1.7240     0.9240     3.9510 ca         1 2NK      -0.059500
     16 C14         -2.3810     0.9220     5.1620 ca         1 2NK      -0.150000
     17 C15         -2.0290     0.0040     6.1440 ca         1 2NK       0.038600
     18 C16         -1.0130    -0.9160     5.9080 ca         1 2NK      -0.150000
     19 C17         -0.3570    -0.9220     4.6970 ca         1 2NK      -0.059500
     20 O1          -6.3270     0.0280     1.1840 oh         1 2NK      -0.474100
     21 F2          -4.9620    -1.8000     2.7090 f          1 2NK      -0.116400
     22 N2          -2.6950     0.0050     7.3700 nh         1 2NK      -0.362000
     23 C18         -4.1450    -0.1500     7.1810 c3         1 2NK       0.134800
     24 C19         -4.8450    -0.0640     8.5390 c3         1 2NK       0.152800
     25 N3          -4.3190    -1.1120     9.4260 n3         1 2NK      -0.548600
     26 C20         -2.8700    -0.9570     9.6140 c3         1 2NK       0.152800
     27 C21         -2.1690    -1.0430     8.2570 c3         1 2NK       0.134800
     28 C22         -5.0210    -1.1100    10.7160 c3         1 2NK       0.189100
     29 H1          -0.5350    -0.0000    -0.9420 h4         1 2NK      -0.014900
     30 H2           3.1010    -0.0000     1.0680 h4         1 2NK      -0.018900
     31 H3           1.9870     0.0010     3.2610 ha         1 2NK       0.122000
     32 H4          -2.3420     1.6560    -0.1830 ha         1 2NK       0.134500
     33 H5          -2.3630    -1.6410     2.5630 ha         1 2NK       0.134500
     34 H6          -1.9990     1.6400     3.1860 ha         1 2NK       0.110500
     35 H7          -3.1720     1.6380     5.3490 ha         1 2NK       0.123000
     36 H8          -0.7420    -1.6320     6.6740 ha         1 2NK       0.123000
     37 H9           0.4350    -1.6390     4.5130 ha         1 2NK       0.110500
     38 H10         -6.6420    -0.5400     0.5000 ho         1 2NK       0.408000
     39 H11         -4.5110     0.6410     6.5370 h1         1 2NK       0.026200
     40 H12         -4.3490    -1.1130     6.7300 h1         1 2NK       0.026200
     41 H13         -5.9110    -0.2080     8.4050 h1         1 2NK       0.015950
     42 H14         -4.6600     0.9080     8.9800 h1         1 2NK       0.015950
     43 H16         -2.5040    -1.7480    10.2590 h1         1 2NK       0.015950
     44 H17         -2.6660     0.0070    10.0650 h1         1 2NK       0.015950
     45 H18         -1.1030    -0.8980     8.3920 h1         1 2NK       0.026200
     46 H19         -2.3540    -2.0150     7.8160 h1         1 2NK       0.026200
     47 H20         -4.8620    -0.1600    11.2120 h1         1 2NK       0.001033
     48 H21         -4.6370    -1.9110    11.3370 h1         1 2NK       0.001033
     49 H22         -6.0810    -1.2580    10.5500 h1         1 2NK       0.001033
@<TRIPOS>BOND
     1     1     2 ar  
     2     1     6 2   
     3     1    29 1   
     4     2     3 ar  
     5     3     4 ar  
     6     3    30 1   
     7     4     5 ar  
     8     4    31 1   
     9     5     6 1   
    10     5     8 1   
    11     6     7 1   
    12     7     9 1   
    13     7    13 2   
    14     8    15 ar  
    15     8    19 ar  
    16     9    10 ar  
    17     9    32 1   
    18    10    11 ar  
    19    10    14 1   
    20    11    12 ar  
    21    11    20 1   
    22    12    13 ar  
    23    12    21 1   
    24    13    33 1   
    25    15    16 ar  
    26    15    34 1   
    27    16    17 ar  
    28    16    35 1   
    29    17    18 ar  
    30    17    22 1   
    31    18    19 ar  
    32    18    36 1   
    33    19    37 1   
    34    20    38 1   
    35    22    23 1   
    36    22    27 1   
    37    23    24 1   
    38    23    39 1   
    39    23    40 1   
    40    24    25 1   
    41    24    41 1   
    42    24    42 1   
    43    25    26 1   
    44    25    28 1   
    45    26    27 1   
    46    26    43 1   
    47    26    44 1   
    48    27    45 1   
    49    27    46 1   
    50    28    47 1   
    51    28    48 1   
    52    28    49 1   
@<TRIPOS>SUBSTRUCTURE
     1 2NK         1 TEMP              0 ****  ****    0 ROOT
