@<TRIPOS>MOLECULE
2NL
   34    35     1     0     0
SMALL
bcc


@<TRIPOS>ATOM
      1 C1           0.0000     0.0000     0.0000 c          1 2NL       0.558100
      2 C2           1.5070     0.0000     0.0000 c3         1 2NL       0.134400
      3 C3           3.3300     0.0000     1.5260 ca         1 2NL       0.166100
      4 C7           5.2360    -0.0120     2.9850 ca         1 2NL       0.044600
      5 C8           3.8590    -0.0060     2.8070 ca         1 2NL      -0.140000
      6 C9           5.1610     0.7040     5.2910 ca         1 2NL       0.508200
      7 C10          5.6270     0.5910     6.5960 ca         1 2NL      -0.296300
      8 C11          5.0070     1.3190     7.5980 ca         1 2NL       0.040400
      9 C12          3.9390     2.1390     7.2560 ca         1 2NL      -0.282300
     10 C13          3.5290     2.2030     5.9390 ca         1 2NL       0.464200
     11 Cl           5.5540     1.2120     9.2420 cl         1 2NL      -0.016400
     12 N2           4.1420     1.5000     5.0060 nb         1 2NL      -0.633000
     13 N1           5.7750    -0.0220     4.2760 nu         1 2NL      -0.317300
     14 C6           6.0780    -0.0110     1.8800 ca         1 2NL      -0.181000
     15 C5           5.5470     0.0010     0.6060 ca         1 2NL      -0.036000
     16 C4           4.1770     0.0010     0.4260 ca         1 2NL      -0.237000
     17 O1           1.9830     0.0000     1.3470 os         1 2NL      -0.264900
     18 O           -0.6070     0.0040     1.0500 o          1 2NL      -0.613100
     19 N           -0.6730    -0.0000    -1.1680 ns         1 2NL      -0.201900
     20 C           -2.1390     0.0060    -1.1680 c3         1 2NL       0.090300
     21 H1           1.8680     0.8850    -0.5110 h1         1 2NL       0.012700
     22 H2           1.8680    -0.8850    -0.5110 h1         1 2NL       0.012700
     23 H3           3.2000    -0.0070     3.6670 ha         1 2NL       0.146000
     24 H4           6.4620    -0.0600     6.8270 ha         1 2NL       0.127000
     25 H5           3.4310     2.7210     8.0150 ha         1 2NL       0.126000
     26 H6           2.6980     2.8420     5.6680 h4         1 2NL      -0.016900
     27 H7           6.6010    -0.5520     4.4690 hn         1 2NL       0.288800
     28 H8           7.1530    -0.0130     2.0190 ha         1 2NL       0.107000
     29 H9           6.2050     0.0010    -0.2550 ha         1 2NL       0.098000
     30 H10          3.7630     0.0080    -0.5750 ha         1 2NL       0.114000
     31 H11         -0.1730    -0.0040    -2.0340 hn         1 2NL       0.167500
     32 H12         -2.4970     0.8930    -0.6600 h1         1 2NL       0.010033
     33 H13         -2.4990     0.0050    -2.1900 h1         1 2NL       0.010033
     34 H14         -2.5040    -0.8760    -0.6560 h1         1 2NL       0.010033
@<TRIPOS>BOND
     1     1     2 1   
     2     1    18 2   
     3     1    19 1   
     4     2    17 1   
     5     2    21 1   
     6     2    22 1   
     7     3     5 ar  
     8     3    16 ar  
     9     3    17 1   
    10     4     5 ar  
    11     4    13 1   
    12     4    14 ar  
    13     5    23 1   
    14     6     7 ar  
    15     6    12 ar  
    16     6    13 1   
    17     7     8 ar  
    18     7    24 1   
    19     8     9 ar  
    20     8    11 1   
    21     9    10 ar  
    22     9    25 1   
    23    10    12 ar  
    24    10    26 1   
    25    13    27 1   
    26    14    15 ar  
    27    14    28 1   
    28    15    16 ar  
    29    15    29 1   
    30    16    30 1   
    31    19    20 1   
    32    19    31 1   
    33    20    32 1   
    34    20    33 1   
    35    20    34 1   
@<TRIPOS>SUBSTRUCTURE
     1 2NL         1 TEMP              0 ****  ****    0 ROOT
