@<TRIPOS>MOLECULE
molecule
   34    35     1     0     0
SMALL
bcc


@<TRIPOS>ATOM
      1 C1           0.0000     0.0000     0.0000 c          1 2NL       0.654100
      2 C2           1.5070     0.0000     0.0000 c3         1 2NL       0.065400
      3 C3           3.3300     0.0000     1.5260 ca         1 2NL       0.156100
      4 C7           5.2360    -0.0120     2.9850 ca         1 2NL       0.195600
      5 C8           3.8590    -0.0060     2.8070 ca         1 2NL      -0.150000
      6 C9           5.1610     0.7040     5.2910 ca         1 2NL       0.702200
      7 C10          5.6270     0.5910     6.5960 ca         1 2NL      -0.311300
      8 C11          5.0070     1.3190     7.5980 ca         1 2NL       0.101400
      9 C12          3.9390     2.1390     7.2560 ca         1 2NL      -0.303300
     10 C13          3.5290     2.2030     5.9390 ca         1 2NL       0.477200
     11 Cl           5.5540     1.2120     9.2420 cl         1 2NL      -0.095400
     12 N2           4.1420     1.5000     5.0060 nb         1 2NL      -0.742000
     13 N1           5.7750    -0.0220     4.2760 nu         1 2NL      -0.775300
     14 C6           6.0780    -0.0110     1.8800 ca         1 2NL      -0.202000
     15 C5           5.5470     0.0010     0.6060 ca         1 2NL      -0.072000
     16 C4           4.1770     0.0010     0.4260 ca         1 2NL      -0.247000
     17 O1           1.9830     0.0000     1.3470 os         1 2NL      -0.291900
     18 O           -0.6070     0.0040     1.0500 o          1 2NL      -0.570100
     19 N           -0.6730    -0.0000    -1.1680 ns         1 2NL      -0.593900
     20 C           -2.1390     0.0060    -1.1680 c3         1 2NL       0.107300
     21 H1           1.8680     0.8850    -0.5110 h1         1 2NL       0.051700
     22 H2           1.8680    -0.8850    -0.5110 h1         1 2NL       0.051700
     23 H3           3.2000    -0.0070     3.6670 ha         1 2NL       0.170000
     24 H4           6.4620    -0.0600     6.8270 ha         1 2NL       0.148000
     25 H5           3.4310     2.7210     8.0150 ha         1 2NL       0.151000
     26 H6           2.6980     2.8420     5.6680 h4         1 2NL       0.034100
     27 H7           6.6010    -0.5520     4.4690 hn         1 2NL       0.458800
     28 H8           7.1530    -0.0130     2.0190 ha         1 2NL       0.130000
     29 H9           6.2050     0.0010    -0.2550 ha         1 2NL       0.130000
     30 H10          3.7630     0.0080    -0.5750 ha         1 2NL       0.127000
     31 H11         -0.1730    -0.0040    -2.0340 hn         1 2NL       0.310500
     32 H12         -2.4970     0.8930    -0.6600 h1         1 2NL       0.043700
     33 H13         -2.4990     0.0050    -2.1900 h1         1 2NL       0.043700
     34 H14         -2.5040    -0.8760    -0.6560 h1         1 2NL       0.043700
@<TRIPOS>BOND
     1    11     8 1
     2     9     8 ar
     3     9    10 ar
     4     8     7 ar
     5    10    12 ar
     6     7     6 ar
     7    12     6 ar
     8     6    13 1
     9    13     4 1
    10     4    14 ar
    11     4     5 ar
    12    14    15 ar
    13     5     3 ar
    14    15    16 ar
    15     3    16 ar
    16     3    17 1
    17    17     2 1
    18     2     1 1
    19     1    19 1
    20     1    18 2
    21    19    20 1
    22     2    21 1
    23     2    22 1
    24     5    23 1
    25     7    24 1
    26     9    25 1
    27    10    26 1
    28    13    27 1
    29    14    28 1
    30    15    29 1
    31    16    30 1
    32    19    31 1
    33    20    32 1
    34    20    33 1
    35    20    34 1
@<TRIPOS>SUBSTRUCTURE
     1 2NL         1 TEMP              0 ****  ****    0 ROOT
