@<TRIPOS>MOLECULE
2NM
   26    27     1     0     0
SMALL
bcc


@<TRIPOS>ATOM
      1 C1          0.0700    0.0140   -0.0030 ca        1 2NM      0.121100
      2 C2          1.4670    0.0660   -0.0310 ca        1 2NM     -0.196000
      3 C3          2.1680    0.0410    1.1750 ca        1 2NM     -0.097000
      4 C7         -0.5990   -0.1500    3.6910 cc        1 2NM      0.352800
      5 C8         -0.0680    0.3020    4.9620 cc        1 2NM     -0.201300
      6 C9         -1.0870    0.0330    5.8870 cd        1 2NM     -0.219600
      7 C10        -1.1440    0.2830    7.3720 c3        1 2NM      0.723200
      8 F2         -2.0100    1.2860    7.7380 f         1 2NM     -0.228633
      9 F          -1.5650   -0.8010    8.1050 f         1 2NM     -0.228633
     10 F1          0.0580    0.6380    7.9260 f         1 2NM     -0.228633
     11 N          -2.1440   -0.5410    5.1660 na        1 2NM      0.024400
     12 N1         -1.8650   -0.6560    3.8790 nd        1 2NM     -0.468800
     13 C5          0.0890   -0.0830    2.4130 ca        1 2NM     -0.090500
     14 C4          1.4940   -0.0330    2.3890 ca        1 2NM     -0.150000
     15 C6         -0.6290   -0.0620    1.2160 ca        1 2NM     -0.127000
     16 O          -0.7370    0.0320   -1.1260 os        1 2NM     -0.325900
     17 C          -0.0660    0.0970   -2.3790 c3        1 2NM      0.113700
     18 H1          2.0160    0.1250   -0.9810 ha        1 2NM      0.139000
     19 H2          3.2680    0.0790    1.1630 ha        1 2NM      0.135000
     20 H3          0.9000    0.7550    5.1510 ha        1 2NM      0.183000
     21 H4         -3.0060   -0.8710    5.5380 hn        1 2NM      0.338700
     22 H5          2.0590   -0.0590    3.3320 ha        1 2NM      0.135000
     23 H6         -1.7280   -0.1020    1.2020 ha        1 2NM      0.163000
     24 H7          0.5910   -0.7950   -2.5220 h1        1 2NM      0.044700
     25 H8          0.5290    1.0390   -2.4590 h1        1 2NM      0.044700
     26 H9         -0.9030    0.0940   -3.1220 h1        1 2NM      0.044700
@<TRIPOS>BOND
     1    1    2 ar  
     2    1   15 ar  
     3    1   16 1   
     4    2    3 ar  
     5    2   18 1   
     6    3   14 ar  
     7    3   19 1   
     8    4    5 1   
     9    4   12 2   
    10    4   13 1   
    11    5    6 2   
    12    5   20 1   
    13    6    7 1   
    14    6   11 1   
    15    7    8 1   
    16    7    9 1   
    17    7   10 1   
    18   11   12 1   
    19   11   21 1   
    20   13   14 ar  
    21   13   15 ar  
    22   14   22 1   
    23   15   23 1   
    24   16   17 1   
    25   17   24 1   
    26   17   25 1   
    27   17   26 1   
@<TRIPOS>SUBSTRUCTURE
     1 2NM         1 TEMP              0 ****  ****    0 ROOT
