@<TRIPOS>MOLECULE
molecule
   26    27     1     0     0
SMALL
bcc


@<TRIPOS>ATOM
      1 C1           0.0000     0.0000     0.0000 ca         1 2NM       0.138100
      2 C2           1.3890     0.0000     0.0000 ca         1 2NM      -0.212000
      3 C3           2.0820     0.0000     1.1950 ca         1 2NM      -0.092000
      4 C7          -0.7300     0.0010     3.6920 cc         1 2NM       0.397800
      5 C8          -0.1560     0.1000     4.9740 cd         1 2NM      -0.269300
      6 C9          -1.1580     0.0650     5.8800 cc         1 2NM      -0.170600
      7 C10         -1.0020     0.1360     7.3770 c3         1 2NM       0.699200
      8 F2          -2.2620     0.0620     7.9810 f          1 2NM      -0.215633
      9 F           -0.2110    -0.9310     7.8150 f          1 2NM      -0.215633
     10 F1          -0.3890     1.3450     7.7240 f          1 2NM      -0.215633
     11 N           -2.3240    -0.0530     5.2070 na         1 2NM      -0.015600
     12 N1          -2.0350    -0.0850     3.8370 nd         1 2NM      -0.471800
     13 C5           0.0070     0.0000     2.4030 ca         1 2NM      -0.086500
     14 C4           1.4000     0.0000     2.3950 ca         1 2NM      -0.147000
     15 C6          -0.6940     0.0060     1.1990 ca         1 2NM      -0.130000
     16 O           -0.6790    -0.0000    -1.1780 os         1 2NM      -0.326900
     17 C            0.1000    -0.0000    -2.3760 c3         1 2NM       0.128700
     18 H1           1.9290    -0.0030    -0.9390 ha         1 2NM       0.136000
     19 H2           3.1660    -0.0000     1.1900 ha         1 2NM       0.134000
     20 H3           0.9010     0.1860     5.1940 ha         1 2NM       0.169000
     21 H4          -3.2360    -0.1030     5.6170 hn         1 2NM       0.343700
     22 H5           1.9470     0.0000     3.3300 ha         1 2NM       0.134000
     23 H6          -1.7770     0.0060     1.2000 ha         1 2NM       0.161000
     24 H7           0.7250     0.8840    -2.4000 h1         1 2NM       0.042367
     25 H8          -0.5590    -0.0000    -3.2350 h1         1 2NM       0.042367
     26 H9           0.7250    -0.8850    -2.4010 h1         1 2NM       0.042367
@<TRIPOS>BOND
     1    10     7 1   
     2     9     7 1   
     3     8     7 1   
     4     7     6 1   
     5     6    11 1   
     6     6     5 2   
     7    11    12 1   
     8     5     4 1   
     9    12     4 2   
    10     4    13 1   
    11    13    14 ar  
    12    13    15 ar  
    13    14     3 ar  
    14    15     1 ar  
    15     3     2 ar  
    16     1     2 ar  
    17     1    16 1   
    18    16    17 1   
    19     2    18 1   
    20     3    19 1   
    21     5    20 1   
    22    11    21 1   
    23    14    22 1   
    24    15    23 1   
    25    17    24 1   
    26    17    25 1   
    27    17    26 1   
@<TRIPOS>SUBSTRUCTURE
     1 2NM         1 TEMP              0 ****  ****    0 ROOT
