@<TRIPOS>MOLECULE
2NP
   25    24     1     0     0
SMALL
bcc


@<TRIPOS>ATOM
      1 C1           0.0000     0.0000     0.0000 c          1 2NP       0.960600
      2 O11         -0.6710     0.5810    -1.0070 o          1 2NP      -0.835300
      3 O12         -0.6050    -0.5240     0.9050 o          1 2NP      -0.835300
      4 C2           1.5060     0.0000     0.0000 c3         1 2NP      -0.199500
      5 N2           1.9950     0.0000     1.3860 nz         1 2NP       0.079400
      6 C3           2.0180    -1.2480    -0.7200 c3         1 2NP      -0.026400
      7 C4           3.5470    -1.2470    -0.7200 c3         1 2NP      -0.042400
      8 C5           4.0580    -2.4940    -1.4420 c3         1 2NP       0.034800
      9 C6           5.5650    -2.4940    -1.4400 ce         1 2NP      -0.157400
     10 C8           6.2300    -3.0700    -0.4430 c2         1 2NP      -0.213000
     11 C7           6.3000    -1.8570    -2.5420 c          1 2NP       0.968800
     12 O71          5.6260    -1.2740    -3.5530 o          1 2NP      -0.884800
     13 O72          7.5150    -1.8570    -2.5400 o          1 2NP      -0.884800
     14 H21          1.8680     0.8850    -0.5100 hx         1 2NP       0.092700
     15 HN21         2.9300     0.3560     1.4100 hn         1 2NP       0.208800
     16 HN22         1.9840    -0.9350     1.7430 hn         1 2NP       0.208800
     17 H31          1.6570    -1.2490    -1.7420 hc         1 2NP       0.050700
     18 H32          1.6580    -2.1330    -0.2090 hc         1 2NP       0.050700
     19 H41          3.9080    -1.2460     0.3010 hc         1 2NP       0.008200
     20 H42          3.9070    -0.3610    -1.2310 hc         1 2NP       0.008200
     21 H51          3.6970    -3.3790    -0.9320 hc         1 2NP       0.021700
     22 H52          3.6980    -2.4940    -2.4630 hc         1 2NP       0.021700
     23 H81          5.6880    -3.5390     0.3700 ha         1 2NP       0.077500
     24 H82          7.3140    -3.0690    -0.4420 ha         1 2NP       0.077500
     25 H23          1.3970     0.5710     1.9500 hn         1 2NP       0.208800
@<TRIPOS>BOND
     1     1     2 1   
     2     1     3 1   
     3     1     4 1   
     4     4     5 1   
     5     4     6 1   
     6     4    14 1   
     7     5    15 1   
     8     5    16 1   
     9     5    25 1   
    10     6     7 1   
    11     6    17 1   
    12     6    18 1   
    13     7     8 1   
    14     7    19 1   
    15     7    20 1   
    16     8     9 1   
    17     8    21 1   
    18     8    22 1   
    19     9    10 2   
    20     9    11 1   
    21    10    23 1   
    22    10    24 1   
    23    11    12 1   
    24    11    13 1   
@<TRIPOS>SUBSTRUCTURE
     1 2NP         1 TEMP              0 ****  ****    0 ROOT
