@<TRIPOS>MOLECULE
molecule
   54    58     1     0     0
SMALL
bcc


@<TRIPOS>ATOM
      1 N1           0.0000     0.0000     0.0000 nb         1 2NQ      -0.662000
      2 N2           7.6360     0.0050     1.2230 nb         1 2NQ      -0.700000
      3 C1           1.3270     0.0000     2.4050 ca         1 2NQ      -0.143000
      4 C2          -0.0620     0.0000     2.3570 ca         1 2NQ       0.045300
      5 C3          -0.2540     2.5350     4.4520 ca         1 2NQ      -0.334500
      6 C4           0.8760     3.1040     3.8950 ca         1 2NQ       0.001500
      7 C5           0.8860     4.4490     3.5750 ca         1 2NQ      -0.189500
      8 C6          -1.3660     4.6530     4.3700 ca         1 2NQ      -0.189500
      9 C7           4.2170     0.0030     2.4060 ca         1 2NQ      -0.107000
     10 C8           6.2980     0.0030     1.2200 ca         1 2NQ       0.441600
     11 C9           4.1960     0.0010    -0.0130 ca         1 2NQ      -0.088000
     12 C10          6.3330     0.0010    -1.2200 ca         1 2NQ       0.153600
     13 C11          4.9720    -1.2650    -2.6650 c3         1 2NQ       0.121800
     14 C12          4.2290    -1.2020    -4.0020 c3         1 2NQ       0.136900
     15 C13          6.6400     0.2520    -3.5410 c3         1 2NQ       0.121800
     16 O1           5.1650    -0.9240    -5.0480 os         1 2NQ      -0.419600
     17 C14          5.8820     0.3000    -4.8690 c3         1 2NQ       0.136900
     18 N3           5.6900    -0.0010    -2.4480 nh         1 2NQ      -0.598000
     19 C15          5.5950     0.0020    -0.0100 ca         1 2NQ      -0.164300
     20 C16          7.7160     0.0040    -1.1360 ca         1 2NQ      -0.321300
     21 C17          8.3300     0.0050     0.1080 ca         1 2NQ       0.459200
     22 C18          5.5740     0.0040     2.4260 ca         1 2NQ      -0.164300
     23 C19          3.5140     0.0010     1.1910 cp         1 2NQ      -0.054000
     24 C20          2.0300     0.0000     1.1980 cp         1 2NQ      -0.127300
     25 C21          1.3180     0.0000     0.0000 ca         1 2NQ       0.419200
     26 C22         -0.6970    -0.0010     1.1190 ca         1 2NQ       0.492300
     27 Cl1         -2.4330    -0.0020     1.0470 cl         1 2NQ      -0.153000
     28 N4          -0.8120    -0.0010     3.5380 nu         1 2NQ      -0.760500
     29 S1          -0.2630     0.8220     4.8660 sy         1 2NQ       1.428200
     30 O2           1.0950     0.4430     5.0400 o          1 2NQ      -0.631300
     31 O3          -1.2510     0.6590     5.8750 o          1 2NQ      -0.631300
     32 C23         -0.2350     5.2250     3.8130 ca         1 2NQ       0.193900
     33 F1          -0.2260     6.5390     3.5000 f          1 2NQ      -0.129900
     34 C24         -1.3740     3.3090     4.6900 ca         1 2NQ       0.001500
     35 H1           1.8500     0.0010     3.3530 ha         1 2NQ       0.203000
     36 H2           1.7530     2.4970     3.7090 ha         1 2NQ       0.156500
     37 H3           1.7710     4.8950     3.1380 ha         1 2NQ       0.155000
     38 H4          -2.2440     5.2600     4.5570 ha         1 2NQ       0.155000
     39 H5           3.6690     0.0030     3.3400 ha         1 2NQ       0.150000
     40 H6           3.6520    -0.0010    -0.9490 ha         1 2NQ       0.147000
     41 H8           4.2590    -1.4170    -1.8640 h1         1 2NQ       0.056200
     42 H9           3.7470    -2.1530    -4.1920 h1         1 2NQ       0.058450
     43 H10          3.4860    -0.4140    -3.9650 h1         1 2NQ       0.058450
     44 H11          7.3730    -0.5450    -3.5730 h1         1 2NQ       0.056200
     45 H12          7.1370     1.2000    -3.3740 h1         1 2NQ       0.056200
     46 H13          6.5860     0.4280    -5.6820 h1         1 2NQ       0.058450
     47 H14          5.1830     1.1280    -4.8550 h1         1 2NQ       0.058450
     48 H15          8.3160     0.0040    -2.0390 ha         1 2NQ       0.145000
     49 H16          9.4120     0.0070     0.1620 h4         1 2NQ       0.024100
     50 H17          6.1010     0.0050     3.3730 ha         1 2NQ       0.156000
     51 H18          1.8540     0.0000    -0.9420 h4         1 2NQ       0.035100
     52 H19         -1.6520    -0.5410     3.5960 hn         1 2NQ       0.476800
     53 H20         -2.2590     2.8610     5.1260 ha         1 2NQ       0.156500
     54 H7           5.6810    -2.0840    -2.6850 h1         1 2NQ       0.056200
@<TRIPOS>BOND
     1     1    25 ar
     2     3    24 ar
     3     3    35 1
     4     4     3 ar
     5     4    26 ar
     6     5    34 ar
     7     5     6 ar
     8     6     7 ar
     9     6    36 1
    10     7    32 ar
    11     7    37 1
    12     8    32 ar
    13     8    38 1
    14     9    22 ar
    15     9    39 1
    16    10    22 ar
    17    10     2 ar
    18    11    23 ar
    19    11    19 ar
    20    11    40 1
    21    12    19 ar
    22    12    20 ar
    23    13    18 1
    24    13    54 1
    25    13    41 1
    26    14    13 1
    27    14    42 1
    28    14    43 1
    29    15    18 1
    30    15    44 1
    31    15    45 1
    32    16    17 1
    33    16    14 1
    34    17    15 1
    35    17    46 1
    36    17    47 1
    37    18    12 1
    38    19    10 ar
    39    20    21 ar
    40    20    48 1
    41    21     2 ar
    42    21    49 1
    43    22    50 1
    44    23     9 ar
    45    24    23 1
    46    24    25 ar
    47    25    51 1
    48    26     1 ar
    49    27    26 1
    50    28     4 1
    51    28    52 1
    52    29    28 1
    53    29     5 1
    54    30    29 2
    55    31    29 2
    56    32    33 1
    57    34     8 ar
    58    34    53 1
@<TRIPOS>SUBSTRUCTURE
     1 2NQ         1 TEMP              0 ****  ****    0 ROOT
