@<TRIPOS>MOLECULE
2NR
   52    55     1     0     0
SMALL
bcc


@<TRIPOS>ATOM
      1 F           0.3330   -1.6830   -0.5710 f         1 2NR     -0.129900
      2 C8          1.4950   -1.0840   -0.2230 ca        1 2NR      0.175900
      3 C9          1.9850   -1.2770    1.0840 ca        1 2NR     -0.204000
      4 C10         3.1710   -0.6690    1.4710 ca        1 2NR     -0.066000
      5 C11         3.8790    0.1370    0.5830 ca        1 2NR     -0.223000
      6 C12         3.3900    0.3330   -0.7150 ca        1 2NR      0.162100
      7 O2          4.0150    1.1420   -1.6430 os        1 2NR     -0.319900
      8 C13         5.3280    1.5840   -1.3140 c3        1 2NR      0.111700
      9 C7          2.1940   -0.2830   -1.1540 cp        1 2NR     -0.096000
     10 C6          1.7010   -0.0820   -2.5110 cp        1 2NR     -0.002000
     11 C5          1.5120    1.2080   -3.0360 ca        1 2NR     -0.091000
     12 C4          1.0350    1.4180   -4.3330 ca        1 2NR     -0.143000
     13 C3          0.7240    0.3640   -5.1920 ca        1 2NR     -0.077000
     14 C2          0.9060   -0.9340   -4.7150 ca        1 2NR      0.078400
     15 C1          1.3930   -1.1290   -3.3750 ca        1 2NR      0.047100
     16 N1          0.6990   -2.1940   -5.3210 nc        1 2NR     -0.597100
     17 C14         1.0460   -3.0920   -4.3840 cd        1 2NR      0.732500
     18 O1          1.4850   -2.5020   -3.1420 os        1 2NR     -0.327700
     19 N2          1.1440   -4.4780   -4.3890 nh        1 2NR     -0.648600
     20 C15         0.3480   -5.2680   -5.2530 ca        1 2NR      0.186600
     21 C20         0.2250   -4.9610   -6.6190 ca        1 2NR     -0.245000
     22 C19        -0.5140   -5.8090   -7.4520 ca        1 2NR      0.155600
     23 O3         -0.6710   -5.5990   -8.8060 os        1 2NR     -0.311900
     24 C21        -0.2510   -4.3310   -9.3020 c3        1 2NR      0.110200
     25 C18        -1.1290   -6.9730   -6.9490 ca        1 2NR      0.029100
     26 O4         -1.9700   -7.7470   -7.7260 os        1 2NR     -0.307900
     27 C22        -1.2840   -8.5580   -8.6810 c3        1 2NR      0.114700
     28 C17        -0.9640   -7.2870   -5.5830 ca        1 2NR      0.155600
     29 C16        -0.2510   -6.4380   -4.7330 ca        1 2NR     -0.245000
     30 O5         -1.5450   -8.4700   -5.1790 os        1 2NR     -0.311900
     31 C23        -1.5930   -8.7030   -3.7750 c3        1 2NR      0.110200
     32 H1          1.4170   -1.9090    1.7820 ha        1 2NR      0.151000
     33 H2          3.5550   -0.8210    2.4910 ha        1 2NR      0.139000
     34 H3          4.8130    0.6140    0.9100 ha        1 2NR      0.143000
     35 H4          5.6640    2.1060   -2.2460 h1        1 2NR      0.047367
     36 H5          5.2950    2.2980   -0.4550 h1        1 2NR      0.047367
     37 H6          5.9960    0.7200   -1.0820 h1        1 2NR      0.047367
     38 H7          1.7650    2.0710   -2.4020 ha        1 2NR      0.146000
     39 H8          0.9030    2.4520   -4.6880 ha        1 2NR      0.136000
     40 H9          0.3500    0.5460   -6.2090 ha        1 2NR      0.150000
     41 H10         1.2790   -4.8600   -3.4720 hn        1 2NR      0.441800
     42 H11         0.7040   -4.0640   -7.0370 ha        1 2NR      0.156500
     43 H12         0.8620   -4.2410   -9.2470 h1        1 2NR      0.047867
     44 H13        -0.7410   -3.4990   -8.7410 h1        1 2NR      0.047867
     45 H14        -0.5930   -4.3470  -10.3680 h1        1 2NR      0.047867
     46 H15        -0.6160   -9.2870   -8.1630 h1        1 2NR      0.041367
     47 H16        -0.6970   -7.9170   -9.3840 h1        1 2NR      0.041367
     48 H17        -2.1110   -9.0860   -9.2170 h1        1 2NR      0.041367
     49 H18        -0.1520   -6.6870   -3.6670 ha        1 2NR      0.156500
     50 H19        -2.1050   -7.8620   -3.2470 h1        1 2NR      0.047867
     51 H20        -2.1920   -9.6450   -3.6920 h1        1 2NR      0.047867
     52 H21        -0.5630   -8.8550   -3.3680 h1        1 2NR      0.047867
@<TRIPOS>BOND
     1    1    2 1   
     2    2    3 ar  
     3    2    9 ar  
     4    3    4 ar  
     5    3   32 1   
     6    4    5 ar  
     7    4   33 1   
     8    5    6 ar  
     9    5   34 1   
    10    6    7 1   
    11    6    9 ar  
    12    7    8 1   
    13    8   35 1   
    14    8   36 1   
    15    8   37 1   
    16    9   10 1   
    17   10   11 ar  
    18   10   15 ar  
    19   11   12 ar  
    20   11   38 1   
    21   12   13 ar  
    22   12   39 1   
    23   13   14 ar  
    24   13   40 1   
    25   14   15 ar  
    26   14   16 1   
    27   15   18 1   
    28   16   17 2   
    29   17   18 1   
    30   17   19 1   
    31   19   20 1   
    32   19   41 1   
    33   20   21 ar  
    34   20   29 ar  
    35   21   22 ar  
    36   21   42 1   
    37   22   23 1   
    38   22   25 ar  
    39   23   24 1   
    40   24   43 1   
    41   24   44 1   
    42   24   45 1   
    43   25   26 1   
    44   25   28 ar  
    45   26   27 1   
    46   27   46 1   
    47   27   47 1   
    48   27   48 1   
    49   28   29 ar  
    50   28   30 1   
    51   29   49 1   
    52   30   31 1   
    53   31   50 1   
    54   31   51 1   
    55   31   52 1   
@<TRIPOS>SUBSTRUCTURE
     1 2NR         1 TEMP              0 ****  ****    0 ROOT
