@<TRIPOS>MOLECULE
2NS
   51    55     1     0     0
SMALL
bcc


@<TRIPOS>ATOM
      1 C23        -0.2390   -0.4070    0.6070 c3        1 2NS      0.109200
      2 O4          1.1330   -0.1120    0.3700 os        1 2NS     -0.309400
      3 C17         1.9590   -0.1080    1.4740 ca        1 2NS      0.156600
      4 C16         1.5030   -0.2030    2.7910 ca        1 2NS     -0.242500
      5 C18         3.3360    0.0180    1.1910 ca        1 2NS      0.033100
      6 O3          3.7650   -0.0320   -0.1210 os        1 2NS     -0.307900
      7 C22         4.2370    1.2220   -0.6200 c3        1 2NS      0.114700
      8 C19         4.2440    0.0780    2.2680 ca        1 2NS      0.156600
      9 O2          5.5640    0.2480    1.9130 os        1 2NS     -0.309400
     10 C21         6.5140    0.2550    2.9760 c3        1 2NS      0.109200
     11 C20         3.8020   -0.0240    3.5940 ca        1 2NS     -0.242500
     12 C15         2.4290   -0.1680    3.8560 ca        1 2NS      0.178600
     13 N4          1.9520   -0.3650    5.1770 nh        1 2NS     -0.647600
     14 C14         2.3600    0.4660    6.2130 cc        1 2NS      0.730500
     15 O1          1.4630    0.4330    7.3450 os        1 2NS     -0.345700
     16 N3          3.4500    1.2260    6.4060 nd        1 2NS     -0.593100
     17 C2          3.3100    1.7430    7.7140 ca        1 2NS      0.085400
     18 C3          4.1240    2.5970    8.4590 ca        1 2NS     -0.083000
     19 C4          3.6960    2.9360    9.7430 ca        1 2NS     -0.133000
     20 C5          2.5010    2.4540   10.2830 ca        1 2NS     -0.114000
     21 C6          1.6500    1.5900    9.5680 cp        1 2NS      0.000000
     22 C1          2.0870    1.2530    8.2910 ca        1 2NS      0.022100
     23 C7          0.4060    1.1190   10.1600 cp        1 2NS     -0.045000
     24 C12        -0.0150   -0.2180   10.0720 ca        1 2NS     -0.054200
     25 N1          0.5490   -1.3510    9.4780 na        1 2NS     -0.277300
     26 C13        -0.3440   -2.4120    9.7270 cc        1 2NS      0.416700
     27 N2         -1.4070   -2.0540   10.4620 nd        1 2NS     -0.566100
     28 C11        -1.2460   -0.6720   10.7040 ca        1 2NS      0.060400
     29 C10        -2.0370    0.2400   11.4100 ca        1 2NS     -0.059000
     30 C9         -1.6110    1.5600   11.4790 ca        1 2NS     -0.158000
     31 C8         -0.4210    1.9900   10.8730 ca        1 2NS     -0.097000
     32 H1         -0.6750   -0.4380   -0.4240 h1        1 2NS      0.048700
     33 H2         -0.3540   -1.3950    1.1130 h1        1 2NS      0.048700
     34 H3         -0.7160    0.4030    1.2110 h1        1 2NS      0.048700
     35 H4          0.4270   -0.3060    2.9920 ha        1 2NS      0.156000
     36 H5          3.4150    1.9770   -0.6120 h1        1 2NS      0.042033
     37 H6          4.5490    0.9840   -1.6670 h1        1 2NS      0.042033
     38 H7          5.1060    1.5780   -0.0150 h1        1 2NS      0.042033
     39 H8          6.4910   -0.7140    3.5320 h1        1 2NS      0.048700
     40 H9          6.3250    1.1120    3.6670 h1        1 2NS      0.048700
     41 H10         7.4900    0.3810    2.4430 h1        1 2NS      0.048700
     42 H11         4.5300    0.0030    4.4180 ha        1 2NS      0.156000
     43 H12         0.9820   -0.6110    5.2370 hn        1 2NS      0.439800
     44 H13         5.0640    2.9880    8.0470 ha        1 2NS      0.154000
     45 H14         4.3200    3.6080   10.3520 ha        1 2NS      0.140000
     46 H15         2.2100    2.7510   11.3030 ha        1 2NS      0.145000
     47 H16         1.3120   -1.3490    8.8540 hn        1 2NS      0.314700
     48 H17        -0.1430   -3.4260    9.3610 h5        1 2NS      0.068800
     49 H19        -2.9680   -0.0870   11.8940 ha        1 2NS      0.150000
     50 H20        -2.2210    2.2960   12.0250 ha        1 2NS      0.135000
     51 H21        -0.1330    3.0490   10.9580 ha        1 2NS      0.135000
@<TRIPOS>BOND
     1    1    2 1
     2    1   32 1
     3    1   33 1
     4    1   34 1
     5    2    3 1
     6    3    4 ar
     7    3    5 ar
     8    4   12 ar
     9    4   35 1
    10    5    6 1
    11    5    8 ar
    12    6    7 1
    13    7   36 1
    14    7   37 1
    15    7   38 1
    16    8    9 1
    17    8   11 ar
    18    9   10 1
    19   10   39 1
    20   10   40 1
    21   10   41 1
    22   11   12 ar
    23   11   42 1
    24   12   13 1
    25   13   14 1
    26   13   43 1
    27   14   15 1
    28   14   16 2
    29   15   22 1
    30   16   17 1
    31   17   18 ar
    32   17   22 ar
    33   18   19 ar
    34   18   44 1
    35   19   20 ar
    36   19   45 1
    37   20   21 ar
    38   20   46 1
    39   21   22 ar
    40   21   23 1
    41   23   24 ar
    42   23   31 ar
    43   24   25 1
    44   24   28 ar
    45   25   26 1
    46   25   47 1
    47   26   27 2
    48   26   48 1
    49   27   28 1
    50   28   29 ar
    51   29   30 ar
    52   29   49 1
    53   30   31 ar
    54   30   50 1
    55   31   51 1
@<TRIPOS>SUBSTRUCTURE
     1 2NS         1 TEMP              0 ****  ****    0 ROOT
