@<TRIPOS>MOLECULE
2NV
   49    39     1     0     0
SMALL
bcc


@<TRIPOS>ATOM
      1 C18         1.9790   -2.3360    1.6340 c2        1 2NV      0.006433
      2 C17         2.1040   -2.1860    0.3140 c2        1 2NV     -0.292333
      3 O16         2.9700   -2.7970    2.4710 oh        1 2NV     -0.578767
      4 C15         7.2580   -2.0560    1.7350 c2        1 2NV     -0.292333
      5 C14         6.5230   -1.9620    2.8470 c2        1 2NV      0.006433
      6 O13         5.5920   -2.9480    3.1230 oh        1 2NV     -0.578767
      7 C12         3.0180   -1.0890    5.1710 c3        1 2NV     -0.236100
      8 C11         2.9860   -2.4750    5.7030 c         1 2NV      0.606900
      9 O10         3.9600   -3.2400    5.6430 o         1 2NV     -0.619100
     10 C9          2.1980   -6.0770    7.0630 c2        1 2NV     -0.292333
     11 C8          3.3560   -6.7160    6.8890 c2        1 2NV      0.006433
     12 O7          4.4450   -6.1880    6.2260 oh        1 2NV     -0.578767
     13 C6          7.1780   -0.1780    6.4030 c1        1 2NV     -0.168500
     14 C5          6.5150   -1.1410    6.1550 c1        1 2NV     -0.168500
     15 O4          6.7640   -6.4180    3.5760 o         1 2NV     -0.651100
     16 H1          3.8610   -4.6380    3.7130 ha        1 2NV      0.004833
     17 H2          4.3930   -5.0050    3.5030 ha        1 2NV      0.004833
     18 H3          2.6830   -1.1190    4.0990 hc        1 2NV      0.083033
     19 H4          1.2750   -1.8130   -0.2990 ha        1 2NV      0.132500
     20 H5          1.0750   -2.1160    2.2250 h4        1 2NV      0.151000
     21 H6          3.0260   -2.4200   -0.2300 ha        1 2NV      0.132500
     22 H7          3.7570   -3.0080    1.9440 ho        1 2NV      0.445000
     23 H8          7.1360   -2.8670    1.0080 ha        1 2NV      0.132500
     24 H9          8.0240   -1.3080    1.4980 ha        1 2NV      0.132500
     25 H10         5.0300   -2.6330    3.8500 ho        1 2NV      0.445000
     26 H11         6.6140   -1.1590    3.5970 h4        1 2NV      0.151000
     27 H12         4.0530   -0.6650    5.2070 hc        1 2NV      0.083033
     28 H13         2.3290   -0.4240    5.7460 hc        1 2NV      0.083033
     29 H14         5.9230   -2.0020    5.9500 ha        1 2NV      0.168000
     30 H15         2.0240   -2.8150    6.1510 h4        1 2NV      0.009200
     31 H16         2.0220   -5.0620    6.6820 ha        1 2NV      0.132500
     32 H17         1.3610   -6.5400    7.5990 ha        1 2NV      0.132500
     33 H18         4.2100   -5.3150    5.8650 ho        1 2NV      0.445000
     34 H19         3.5930   -7.7320    7.2430 h4        1 2NV      0.151000
     35 H20         7.7650    0.6810    6.6210 ha        1 2NV      0.168000
     36 H21         6.1320   -6.4440    1.6320 h4        1 2NV      0.015700
     37 C3          6.5050   -5.8640    2.5030 c         1 2NV      0.622700
     38 C2          8.0940   -7.1520    7.0920 c1        1 2NV     -0.233200
     39 C2A         9.0050   -7.1910    7.8670 c1        1 2NV      0.094500
     40 N1          7.0420   -7.1020    6.1930 n4        1 2NV     -0.594200
     41 H22         6.9130   -6.1350    5.8220 hn        1 2NV      0.493133
     42 H23         7.4750   -9.1660    4.0130 ha        1 2NV      0.004833
     43 H24         6.6300   -4.7660    2.3680 h4        1 2NV      0.015700
     44 H25         6.0510   -4.4790    4.9280 ha        1 2NV      0.004833
     45 H26         6.1820   -4.2790    5.5650 ha        1 2NV      0.004833
     46 H27         9.8170   -7.2280    8.5600 ha        1 2NV      0.220500
     47 H28         6.1580   -7.3800    6.6530 hn        1 2NV      0.493133
     48 H29         7.2250   -7.7230    5.3800 hn        1 2NV      0.493133
     49 H131        7.3270   -8.7220    3.5220 ha        1 2NV      0.004833
@<TRIPOS>BOND
     1    1    2 2   
     2    1    3 1   
     3    1   20 1   
     4    2   19 1   
     5    2   21 1   
     6    3   22 1   
     7    4    5 2   
     8    4   23 1   
     9    4   24 1   
    10    5    6 1   
    11    5   26 1   
    12    6   25 1   
    13    7    8 1   
    14    7   18 1   
    15    7   27 1   
    16    7   28 1   
    17    8    9 2   
    18    8   30 1   
    19   10   11 2   
    20   10   31 1   
    21   10   32 1   
    22   11   12 1   
    23   11   34 1   
    24   12   33 1   
    25   13   14 3   
    26   13   35 1   
    27   14   29 1   
    28   15   37 2   
    29   16   17 1   
    30   36   37 1   
    31   37   43 1   
    32   38   39 3   
    33   38   40 1   
    34   39   46 1   
    35   40   41 1   
    36   40   47 1   
    37   40   48 1   
    38   42   49 1   
    39   44   45 1   
@<TRIPOS>SUBSTRUCTURE
     1 2NV         1 TEMP              0 ****  ****    0 ROOT
