@<TRIPOS>MOLECULE
molecule
   19    20     1     0     0
SMALL
bcc


@<TRIPOS>ATOM
      1 Br           0.0000     0.0000     0.0000 br         1 2NW      -0.083100
      2 CAI          1.8910     0.0000     0.0000 ca         1 2NW      -0.177200
      3 CAG          2.5890     0.0000     1.2020 ca         1 2NW       0.459200
      4 NAH          3.9010     0.0000     1.2410 nb         1 2NW      -0.682000
      5 CAK          4.6380    -0.0010     0.1230 ca         1 2NW       0.429600
      6 CAE          6.0410    -0.0020     0.1830 ca         1 2NW      -0.169300
      7 CAC          6.7660    -0.0030    -0.9700 ca         1 2NW      -0.112000
      8 CAD          6.1390    -0.0050    -2.2120 ca         1 2NW      -0.133000
      9 CAF          4.7800    -0.0030    -2.3080 ca         1 2NW      -0.096000
     10 CAL          4.0030    -0.0020    -1.1410 ca         1 2NW      -0.172300
     11 CAJ          2.5880    -0.0070    -1.1980 ca         1 2NW       0.243600
     12 NAA          1.9210    -0.0130    -2.4140 nv         1 2NW      -0.983200
     13 H1           2.0340    -0.0000     2.1320 h4         1 2NW       0.034100
     14 H2           6.5450    -0.0010     1.1430 ha         1 2NW       0.151000
     15 H3           7.8480    -0.0050    -0.9190 ha         1 2NW       0.134000
     16 H4           6.7380    -0.0060    -3.1140 ha         1 2NW       0.132000
     17 H5           4.3020    -0.0040    -3.2810 ha         1 2NW       0.141000
     18 H6           1.6620     0.8510    -2.8470 hn         1 2NW       0.440800
     19 H7           1.6670    -0.8820    -2.8410 hn         1 2NW       0.440800
@<TRIPOS>BOND
     1     1     2 1   
     2     3     4 ar  
     3     3     2 ar  
     4     4     5 ar  
     5     2    11 ar  
     6     5     6 ar  
     7     5    10 ar  
     8    11    10 ar  
     9    11    12 1   
    10     6     7 ar  
    11    10     9 ar  
    12     7     8 ar  
    13     9     8 ar  
    14     3    13 1   
    15     6    14 1   
    16     7    15 1   
    17     8    16 1   
    18     9    17 1   
    19    12    18 1   
    20    12    19 1   
@<TRIPOS>SUBSTRUCTURE
     1 2NW         1 TEMP              0 ****  ****    0 ROOT
