@<TRIPOS>MOLECULE
2NX
   27    27     1     0     0
SMALL
bcc


@<TRIPOS>ATOM
      1 CAA          0.0000     0.0000     0.0000 c3         1 2NX       0.364200
      2 OAK          1.4290     0.0000     0.0000 os         1 2NX      -0.456700
      3 PAO          2.3060     0.0000     1.3500 p5         1 2NX       1.119500
      4 OAL          3.8280     0.3920     1.0010 os         1 2NX      -0.456700
      5 CAB          4.8060     0.6810     2.0020 c3         1 2NX       0.364200
      6 OAD          1.7470     0.9870     2.3010 o          1 2NX      -0.657300
      7 NAJ          2.2680    -1.4940     2.0270 ns         1 2NX      -0.351900
      8 CAM          2.7290    -2.5570     1.3390 c          1 2NX       0.659700
      9 OAC          3.1730    -2.4090     0.2180 o          1 2NX      -0.629100
     10 CAN          2.6950    -3.9040     1.9500 ca         1 2NX      -0.177600
     11 CAH          3.1710    -5.0060     1.2400 ca         1 2NX      -0.053000
     12 CAF          3.1380    -6.2600     1.8150 ca         1 2NX      -0.112500
     13 CAE          2.6310    -6.4240     3.0920 ca         1 2NX      -0.072000
     14 CAG          2.1570    -5.3350     3.8010 ca         1 2NX      -0.112500
     15 CAI          2.1910    -4.0760     3.2390 ca         1 2NX      -0.053000
     16 H1          -0.3610     1.0150    -0.1110 h1         1 2NX      -0.024633
     17 H2          -0.3610    -0.4110     0.9350 h1         1 2NX      -0.024633
     18 H3          -0.3610    -0.6040    -0.8240 h1         1 2NX      -0.024633
     19 H4           5.6990     0.0990     1.8130 h1         1 2NX      -0.024633
     20 H5           4.4100     0.4280     2.9780 h1         1 2NX      -0.024633
     21 H6           5.0500     1.7360     1.9740 h1         1 2NX      -0.024633
     22 H7           1.8880    -1.6170     2.9440 hn         1 2NX       0.227500
     23 H8           3.5680    -4.8780     0.2400 ha         1 2NX       0.114000
     24 H9           3.5070    -7.1180     1.2660 ha         1 2NX       0.107000
     25 H10          2.6050    -7.4110     3.5390 ha         1 2NX       0.103000
     26 H11          1.7640    -5.4710     4.8010 ha         1 2NX       0.107000
     27 H12          1.8190    -3.2230     3.7950 ha         1 2NX       0.114000
@<TRIPOS>BOND
     1     1     2 1   
     2     1    16 1   
     3     1    17 1   
     4     1    18 1   
     5     2     3 1   
     6     3     4 1   
     7     3     6 2   
     8     3     7 1   
     9     4     5 1   
    10     5    19 1   
    11     5    20 1   
    12     5    21 1   
    13     7     8 1   
    14     7    22 1   
    15     8     9 2   
    16     8    10 1   
    17    10    11 ar  
    18    10    15 ar  
    19    11    12 ar  
    20    11    23 1   
    21    12    13 ar  
    22    12    24 1   
    23    13    14 ar  
    24    13    25 1   
    25    14    15 ar  
    26    14    26 1   
    27    15    27 1   
@<TRIPOS>SUBSTRUCTURE
     1 2NX         1 TEMP              0 ****  ****    0 ROOT
