@<TRIPOS>MOLECULE
molecule
   32    33     1     0     0
SMALL
bcc


@<TRIPOS>ATOM
      1 CAA          0.0000     0.0000     0.0000 c3         1 2NY      -0.112600
      2 CAH          1.5310     0.0000     0.0000 c3         1 2NY       0.240800
      3 NAP          2.0190     0.0000     1.3810 nh         1 2NY      -0.807300
      4 CAI          2.2620     1.2680     2.0730 c3         1 2NY       0.240800
      5 CAB          0.9870     1.7090     2.7940 c3         1 2NY      -0.112600
      6 C2           2.2490    -1.1980     2.0320 ca         1 2NY       0.958900
      7 N1           2.0240    -2.3330     1.3780 nb         1 2NY      -0.816000
      8 N3           2.6890    -1.1670     3.2770 nb         1 2NY      -0.813000
      9 C4           2.9250    -2.3070     3.9430 ca         1 2NY       0.497600
     10 CAF          3.3910    -2.3110     5.2630 ca         1 2NY      -0.200300
     11 CAD          3.6150    -3.4980     5.8960 ca         1 2NY      -0.089000
     12 CAE          3.3890    -4.7090     5.2480 ca         1 2NY      -0.168000
     13 CAG          2.9340    -4.7410     3.9620 ca         1 2NY      -0.065000
     14 C5           2.6940    -3.5400     3.2850 ca         1 2NY      -0.343600
     15 C6           2.2270    -3.5120     1.9480 ca         1 2NY       0.776200
     16 NAC          1.9900    -4.6810     1.2560 nv         1 2NY      -1.082500
     17 H1          -0.3610    -0.5710    -0.8470 hc         1 2NY       0.039533
     18 H2          -0.3610    -0.4480     0.9180 hc         1 2NY       0.039533
     19 H3          -0.3610     1.0190    -0.0710 hc         1 2NY       0.039533
     20 H4           1.8920     0.8850    -0.5110 h1         1 2NY       0.056950
     21 H5           1.8920    -0.8850    -0.5110 h1         1 2NY       0.056950
     22 H6           3.0590     1.1390     2.7950 h1         1 2NY       0.056950
     23 H7           2.5490     2.0240     1.3510 h1         1 2NY       0.056950
     24 H8           0.4000     0.8370     3.0550 hc         1 2NY       0.039533
     25 H9           1.2510     2.2500     3.6950 hc         1 2NY       0.039533
     26 H10          0.4080     2.3530     2.1430 hc         1 2NY       0.039533
     27 H11          3.5720    -1.3760     5.7800 ha         1 2NY       0.148000
     28 H12          3.9760    -3.4990     6.9170 ha         1 2NY       0.130000
     29 H13          3.5740    -5.6380     5.7730 ha         1 2NY       0.129000
     30 H14          2.7610    -5.6900     3.4690 ha         1 2NY       0.136000
     31 H15          2.7030    -5.0700     0.6720 hn         1 2NY       0.442800
     32 H16          1.0880    -5.1130     1.3000 hn         1 2NY       0.442800
@<TRIPOS>BOND
     1    16    15 1   
     2     2     1 1   
     3     2     3 1   
     4     7    15 ar  
     5     7     6 ar  
     6    15    14 ar  
     7     3     6 1   
     8     3     4 1   
     9     6     8 ar  
    10     5     4 1   
    11    14    13 ar  
    12    14     9 ar  
    13    13    12 ar  
    14     8     9 ar  
    15     9    10 ar  
    16    12    11 ar  
    17    10    11 ar  
    18     1    17 1   
    19     1    18 1   
    20     1    19 1   
    21     2    20 1   
    22     2    21 1   
    23     4    22 1   
    24     4    23 1   
    25     5    24 1   
    26     5    25 1   
    27     5    26 1   
    28    10    27 1   
    29    11    28 1   
    30    12    29 1   
    31    13    30 1   
    32    16    31 1   
    33    16    32 1   
@<TRIPOS>SUBSTRUCTURE
     1 2NY         1 TEMP              0 ****  ****    0 ROOT
