@<TRIPOS>MOLECULE
2NY
   32    33     1     0     0
SMALL
bcc


@<TRIPOS>ATOM
      1 CAA          0.0000     0.0000     0.0000 c3         1 2NY      -0.018600
      2 CAH          1.5310     0.0000     0.0000 c3         1 2NY       0.168800
      3 NAP          2.0190     0.0000     1.3810 nh         1 2NY      -0.448300
      4 CAI          2.2620     1.2680     2.0730 c3         1 2NY       0.168800
      5 CAB          0.9870     1.7090     2.7940 c3         1 2NY      -0.018600
      6 C2           2.2490    -1.1980     2.0320 ca         1 2NY       0.746900
      7 N1           2.0240    -2.3330     1.3780 nb         1 2NY      -0.693000
      8 N3           2.6890    -1.1670     3.2770 nb         1 2NY      -0.713000
      9 C4           2.9250    -2.3070     3.9430 ca         1 2NY       0.459600
     10 CAF          3.3910    -2.3110     5.2630 ca         1 2NY      -0.177300
     11 CAD          3.6150    -3.4980     5.8960 ca         1 2NY      -0.061000
     12 CAE          3.3890    -4.7090     5.2480 ca         1 2NY      -0.138000
     13 CAG          2.9340    -4.7410     3.9620 ca         1 2NY      -0.039000
     14 C5           2.6940    -3.5400     3.2850 ca         1 2NY      -0.337600
     15 C6           2.2270    -3.5120     1.9480 ca         1 2NY       0.596200
     16 NAC          1.9900    -4.6810     1.2560 nv         1 2NY      -0.654500
     17 H1          -0.3610    -0.5710    -0.8470 hc         1 2NY       0.008033
     18 H2          -0.3610    -0.4480     0.9180 hc         1 2NY       0.008033
     19 H3          -0.3610     1.0190    -0.0710 hc         1 2NY       0.008033
     20 H4           1.8920     0.8850    -0.5110 h1         1 2NY       0.029700
     21 H5           1.8920    -0.8850    -0.5110 h1         1 2NY       0.029700
     22 H6           3.0590     1.1390     2.7950 h1         1 2NY       0.029700
     23 H7           2.5490     2.0240     1.3510 h1         1 2NY       0.029700
     24 H8           0.4000     0.8370     3.0550 hc         1 2NY       0.008033
     25 H9           1.2510     2.2500     3.6950 hc         1 2NY       0.008033
     26 H10          0.4080     2.3530     2.1430 hc         1 2NY       0.008033
     27 H11          3.5720    -1.3760     5.7800 ha         1 2NY       0.118000
     28 H12          3.9760    -3.4990     6.9170 ha         1 2NY       0.100000
     29 H13          3.5740    -5.6380     5.7730 ha         1 2NY       0.104000
     30 H14          2.7610    -5.6900     3.4690 ha         1 2NY       0.107000
     31 H15          2.7030    -5.0700     0.6720 hn         1 2NY       0.281800
     32 H16          1.0880    -5.1130     1.3000 hn         1 2NY       0.281800
@<TRIPOS>BOND
     1     1     2 1   
     2     1    17 1   
     3     1    18 1   
     4     1    19 1   
     5     2     3 1   
     6     2    20 1   
     7     2    21 1   
     8     3     4 1   
     9     3     6 1   
    10     4     5 1   
    11     4    22 1   
    12     4    23 1   
    13     5    24 1   
    14     5    25 1   
    15     5    26 1   
    16     6     7 ar  
    17     6     8 ar  
    18     7    15 ar  
    19     8     9 ar  
    20     9    10 ar  
    21     9    14 ar  
    22    10    11 ar  
    23    10    27 1   
    24    11    12 ar  
    25    11    28 1   
    26    12    13 ar  
    27    12    29 1   
    28    13    14 ar  
    29    13    30 1   
    30    14    15 ar  
    31    15    16 1   
    32    16    31 1   
    33    16    32 1   
@<TRIPOS>SUBSTRUCTURE
     1 2NY         1 TEMP              0 ****  ****    0 ROOT
