@<TRIPOS>MOLECULE
2NZ
   23    24     1     0     0
SMALL
bcc


@<TRIPOS>ATOM
      1 CAA        -0.0380    0.2100   -0.0330 c3        1 2NZ     -0.203100
      2 C           1.3620    0.7180   -0.1250 c         1 2NZ      0.557100
      3 O           1.7420    1.7490    0.4340 o         1 2NZ     -0.516100
      4 CA          2.2670   -0.1250   -1.0150 c3        1 2NZ     -0.049700
      5 N           3.6470   -0.1460   -0.6570 na        1 2NZ     -0.182300
      6 CAL         4.5020   -1.2580   -0.7320 ca        1 2NZ     -0.073200
      7 CAF         4.2970   -2.6020   -1.0610 ca        1 2NZ     -0.138000
      8 CAD         5.4000   -3.4460   -1.0230 ca        1 2NZ     -0.113000
      9 CAC         6.6770   -2.9780   -0.6700 ca        1 2NZ     -0.153000
     10 CAE         6.9040   -1.6490   -0.3410 ca        1 2NZ     -0.067000
     11 CAK         5.8200   -0.7640   -0.3670 ca        1 2NZ      0.070400
     12 NAI         5.7400    0.6190   -0.0850 nc        1 2NZ     -0.568100
     13 CAG         4.4570    0.9490   -0.2690 cd        1 2NZ      0.441700
     14 H1         -0.7080    0.9820    0.4170 hc        1 2NZ      0.071033
     15 H2         -0.0570   -0.7020    0.6160 hc        1 2NZ      0.071033
     16 H3         -0.4210   -0.0630   -1.0460 hc        1 2NZ      0.071033
     17 H4          2.1510    0.2870   -2.0640 h1        1 2NZ      0.074700
     18 H5          1.8870   -1.1880   -1.0160 h1        1 2NZ      0.074700
     19 H6          3.3050   -2.9790   -1.3380 ha        1 2NZ      0.129000
     20 H7          5.2710   -4.5090   -1.2750 ha        1 2NZ      0.131000
     21 H8          7.5170   -3.6890   -0.6550 ha        1 2NZ      0.133000
     22 H9          7.9070   -1.2920   -0.0650 ha        1 2NZ      0.149000
     23 H10         4.0170    1.9460   -0.1150 h5        1 2NZ      0.090800
@<TRIPOS>BOND
     1    1    2 1   
     2    1   14 1   
     3    1   15 1   
     4    1   16 1   
     5    2    3 2   
     6    2    4 1   
     7    4    5 1   
     8    4   17 1   
     9    4   18 1   
    10    5    6 1   
    11    5   13 1   
    12    6    7 ar  
    13    6   11 ar  
    14    7    8 ar  
    15    7   19 1   
    16    8    9 ar  
    17    8   20 1   
    18    9   10 ar  
    19    9   21 1   
    20   10   11 ar  
    21   10   22 1   
    22   11   12 1   
    23   12   13 2   
    24   13   23 1   
@<TRIPOS>SUBSTRUCTURE
     1 2NZ         1 TEMP              0 ****  ****    0 ROOT
