@<TRIPOS>MOLECULE
molecule
   23    24     1     0     0
SMALL
bcc


@<TRIPOS>ATOM
      1 CAA          0.0000     0.0000     0.0000 c3         1 2NZ      -0.192100
      2 C            1.5070     0.0000     0.0000 c          1 2NZ       0.529100
      3 O            2.1100     0.0000     1.0470 o          1 2NZ      -0.487100
      4 CA           2.2610     0.0010    -1.3040 c3         1 2NZ      -0.048700
      5 N            3.7010     0.0010    -1.0360 na         1 2NZ      -0.152300
      6 CAL          4.4880    -1.1070    -0.7920 ca         1 2NZ      -0.082200
      7 CAF          4.2410    -2.4710    -0.7170 ca         1 2NZ      -0.126000
      8 CAD          5.2780    -3.3380    -0.4480 ca         1 2NZ      -0.112000
      9 CAC          6.5650    -2.8580    -0.2520 ca         1 2NZ      -0.147000
     10 CAE          6.8260    -1.5190    -0.3210 ca         1 2NZ      -0.067000
     11 CAK          5.7910    -0.6200    -0.5930 ca         1 2NZ       0.093400
     12 NAI          5.7330     0.7300    -0.7240 nc         1 2NZ      -0.598100
     13 CAG          4.5120     1.0920    -0.9870 cd         1 2NZ       0.435700
     14 H1          -0.3610    -0.4830    -0.9000 hc         1 2NZ       0.064700
     15 H2          -0.3610    -0.5380     0.8680 hc         1 2NZ       0.064700
     16 H3          -0.3610     1.0210     0.0320 hc         1 2NZ       0.064700
     17 H4           2.0000     0.8860    -1.8720 h1         1 2NZ       0.081200
     18 H5           2.0000    -0.8830    -1.8730 h1         1 2NZ       0.081200
     19 H6           3.2380    -2.8510    -0.8700 ha         1 2NZ       0.122000
     20 H7           5.0870    -4.4030    -0.3900 ha         1 2NZ       0.131000
     21 H8           7.3700    -3.5510    -0.0410 ha         1 2NZ       0.132000
     22 H9           7.8340    -1.1540    -0.1660 ha         1 2NZ       0.142000
     23 H10          4.1880     2.1140    -1.1460 h5         1 2NZ       0.070800
@<TRIPOS>BOND
     1    13    12 2   
     2    13     5 1   
     3    12    11 1   
     4     3     2 2   
     5     2     1 1   
     6     2     4 1   
     7     5     4 1   
     8     5     6 1   
     9    11     6 ar  
    10    11    10 ar  
    11     6     7 ar  
    12    10     9 ar  
    13     7     8 ar  
    14     9     8 ar  
    15     1    14 1   
    16     1    15 1   
    17     1    16 1   
    18     4    17 1   
    19     4    18 1   
    20     7    19 1   
    21     8    20 1   
    22     9    21 1   
    23    10    22 1   
    24    13    23 1   
@<TRIPOS>SUBSTRUCTURE
     1 2NZ         1 TEMP              0 ****  ****    0 ROOT
