@<TRIPOS>MOLECULE
2O0
   26    27     1     0     0
SMALL
bcc


@<TRIPOS>ATOM
      1 CAE          0.0000     0.0000     0.0000 ca         1 2O0      -0.017000
      2 CAC          1.3660     0.0000     0.0000 ca         1 2O0      -0.108000
      3 CAD          2.0740     0.0000     1.1930 ca         1 2O0      -0.061000
      4 CAF          1.4080     0.0010     2.4010 ca         1 2O0      -0.115000
      5 CAM          0.0210    -0.0000     2.4210 ca         1 2O0      -0.263200
      6 CAL         -0.6950    -0.0000     1.2120 ca         1 2O0       0.067400
      7 NAJ         -2.0150     0.0030     1.5340 nc         1 2O0      -0.471100
      8 CAG         -2.1480     0.0010     2.8280 cd         1 2O0       0.249700
      9 NAN         -0.9260    -0.0000     3.4250 na         1 2O0       0.256700
     10 CAI         -0.6640    -0.0000     4.8670 c3         1 2O0      -0.001700
     11 CAH         -0.4490     1.4370     5.3450 c3         1 2O0      -0.120400
     12 CAK         -0.1780     1.4370     6.8280 c          1 2O0       0.313100
     13 OAB         -0.1590     0.3910     7.4410 o          1 2O0      -0.388100
     14 NAA          0.0420     2.5990     7.4730 nz         1 2O0       0.197600
     15 H1          -0.5430    -0.0000    -0.9370 ha         1 2O0       0.122000
     16 H2           1.9020    -0.0000    -0.9410 ha         1 2O0       0.117000
     17 H3           3.1580    -0.0000     1.1760 ha         1 2O0       0.110000
     18 H4           1.9660     0.0010     3.3290 ha         1 2O0       0.089000
     19 H5          -3.0950     0.0010     3.3540 h5         1 2O0       0.029800
     20 H6          -1.5100    -0.4320     5.3880 h1         1 2O0       0.052700
     21 H7           0.2240    -0.5860     5.0720 h1         1 2O0       0.052700
     22 H8           0.3970     1.8690     4.8240 hc         1 2O0       0.068200
     23 H9          -1.3370     2.0220     5.1400 hc         1 2O0       0.068200
     24 H10         -0.7580     3.1930     7.3740 hn         1 2O0       0.250133
     25 H11          0.8440     3.0510     7.0800 hn         1 2O0       0.250133
     26 HAA3         0.2040     2.4170     8.4430 hn         1 2O0       0.250133
@<TRIPOS>BOND
     1     1     2 ar  
     2     1     6 ar  
     3     1    15 1   
     4     2     3 ar  
     5     2    16 1   
     6     3     4 ar  
     7     3    17 1   
     8     4     5 ar  
     9     4    18 1   
    10     5     6 ar  
    11     5     9 1   
    12     6     7 1   
    13     7     8 2   
    14     8     9 1   
    15     8    19 1   
    16     9    10 1   
    17    10    11 1   
    18    10    20 1   
    19    10    21 1   
    20    11    12 1   
    21    11    22 1   
    22    11    23 1   
    23    12    13 2   
    24    12    14 1   
    25    14    24 1   
    26    14    25 1   
    27    14    26 1   
@<TRIPOS>SUBSTRUCTURE
     1 2O0         1 TEMP              0 ****  ****    0 ROOT
