@<TRIPOS>MOLECULE
molecule
   25    27     1     0     0
SMALL
bcc


@<TRIPOS>ATOM
      1 OAA          0.0000     0.0000     0.0000 o          1 2O1      -0.516100
      2 CAK          1.2140     0.0000     0.0000 c          1 2O1       0.585700
      3 CAH          2.0150     0.0000     1.2900 c3         1 2O1      -0.221400
      4 CAG          3.2210     0.9220     1.0620 c3         1 2O1       0.164800
      5 NAI          4.0480     0.3890    -0.0230 nu         1 2O1      -0.699600
      6 CAM          3.3750     0.2050    -1.1980 ca         1 2O1       0.199600
      7 CAL          1.9890    -0.0060    -1.2480 ca         1 2O1      -0.369900
      8 CAF          1.3540    -0.2160    -2.4830 ca         1 2O1       0.497200
      9 NAJ          2.0310    -0.2150    -3.6030 nb         1 2O1      -0.704000
     10 CAN          3.3580    -0.0160    -3.6310 ca         1 2O1       0.450600
     11 CAO          4.0780     0.2080    -2.4300 ca         1 2O1      -0.176300
     12 CAE          5.4630     0.4120    -2.4740 ca         1 2O1      -0.087000
     13 CAC          6.1070     0.4090    -3.6760 ca         1 2O1      -0.141000
     14 CAB          5.4040     0.2060    -4.8600 ca         1 2O1      -0.103000
     15 CAD          4.0560    -0.0180    -4.8490 ca         1 2O1      -0.178300
     16 H1           2.3550    -1.0040     1.5140 hc         1 2O1       0.077200
     17 H2           1.4080     0.3810     2.1020 hc         1 2O1       0.077200
     18 H3           3.8100     0.9750     1.9700 h1         1 2O1       0.070200
     19 H4           2.8710     1.9120     0.7940 h1         1 2O1       0.070200
     20 H5           4.4590    -0.4770     0.2650 hn         1 2O1       0.393800
     21 H6           0.2840    -0.3810    -2.5090 h4         1 2O1       0.044100
     22 H7           6.0190     0.5710    -1.5580 ha         1 2O1       0.146000
     23 H8           7.1750     0.5850    -3.7120 ha         1 2O1       0.133000
     24 H9           5.9360     0.2080    -5.8030 ha         1 2O1       0.135000
     25 H10          3.5240    -0.1740    -5.7800 ha         1 2O1       0.152000
@<TRIPOS>BOND
     1     1     2 2
     2     8     9 ar
     3     8     7 ar
     4     9    10 ar
     5     2     7 1
     6     2     3 1
     7     7     6 ar
     8     3     4 1
     9    10    15 ar
    10    10    11 ar
    11    15    14 ar
    12     6    11 ar
    13     6     5 1
    14     4     5 1
    15    11    12 ar
    16    14    13 ar
    17    12    13 ar
    18     3    16 1
    19     3    17 1
    20     4    18 1
    21     4    19 1
    22     5    20 1
    23     8    21 1
    24    12    22 1
    25    13    23 1
    26    14    24 1
    27    15    25 1
@<TRIPOS>SUBSTRUCTURE
     1 2O1         1 TEMP              0 ****  ****    0 ROOT
