@<TRIPOS>MOLECULE
molecule
   49    52     1     0     0
SMALL
bcc


@<TRIPOS>ATOM
      1 CAV          0.0000     0.0000     0.0000 ca         1 2O2      -0.099500
      2 CAW          1.3820     0.0000     0.0000 ca         1 2O2      -0.153000
      3 CAX          2.0740     0.0000     1.1970 ca         1 2O2      -0.163000
      4 CAY          1.3830    -0.0020     2.3940 ca         1 2O2      -0.153000
      5 CAZ          0.0000    -0.0020     2.3940 ca         1 2O2      -0.099500
      6 CAU         -0.6910    -0.0020     1.1970 ca         1 2O2      -0.092300
      7 CAB         -2.1980     0.0040     1.1970 c3         1 2O2       0.316700
      8 PAA         -2.8070     1.6240     1.7690 p5         1 2O2       1.019700
      9 OBB         -2.2700     2.7780     0.7820 o          1 2O2      -0.885833
     10 OBC         -4.4170     1.6220     1.7660 o          1 2O2      -0.885833
     11 OBA         -2.3160     1.8790     3.1410 o          1 2O2      -0.885833
     12 OAH         -2.6840    -1.0270     2.0580 os         1 2O2      -0.370600
     13 OAD         -2.6820    -0.2560    -0.1260 os         1 2O2      -0.360600
     14 CAC         -2.1940    -1.4870    -0.6600 c3         1 2O2       0.073400
     15 CAE         -2.6320    -2.6600     0.2230 c3         1 2O2       0.065100
     16 OAF         -1.7620    -3.7710    -0.0870 os         1 2O2      -0.439600
     17 CAG         -2.3320    -2.3470     1.7040 c3         1 2O2       0.122100
     18 CAI         -0.8030    -2.5670     1.7600 c3         1 2O2      -0.193400
     19 CAJ         -0.6150    -3.7410     0.7720 c3         1 2O2       0.316500
     20 N1           0.5960    -3.5320    -0.0250 n          1 2O2      -0.356000
     21 C6           0.4810    -3.1240    -1.3220 cc         1 2O2      -0.061400
     22 C2           1.7970    -3.7410     0.5390 c          1 2O2       0.813500
     23 O2           1.8500    -4.0990     1.7000 o          1 2O2      -0.741500
     24 N3           2.9420    -3.5650    -0.1430 ns         1 2O2      -0.570500
     25 C4           2.9130    -3.1680    -1.4330 c          1 2O2       0.692700
     26 O4           3.9460    -3.0060    -2.0570 o          1 2O2      -0.619500
     27 C5           1.6080    -2.9280    -2.0670 cc         1 2O2      -0.156200
     28 CAR          1.5200    -2.4920    -3.4750 ce         1 2O2      -0.178000
     29 CAS          2.6180    -2.4090    -4.2140 c2         1 2O2      -0.190600
     30 PBD          2.4950    -2.0110    -5.9790 p5         1 2O2       1.055100
     31 OBF          0.9480    -1.8110    -6.3780 o          1 2O2      -0.918167
     32 OBG          3.2410    -0.7640    -6.2580 o          1 2O2      -0.918167
     33 OBE          3.1200    -3.2150    -6.8470 o          1 2O2      -0.918167
     34 H1          -0.5420     0.0000    -0.9380 ha         1 2O2       0.163000
     35 H2           1.9240     0.0010    -0.9380 ha         1 2O2       0.113000
     36 H3           3.1570     0.0000     1.1970 ha         1 2O2       0.091000
     37 H4           1.9240    -0.0020     3.3320 ha         1 2O2       0.113000
     38 H5          -0.5410    -0.0030     3.3320 ha         1 2O2       0.163000
     39 H8          -2.5900    -1.6240    -1.6590 h1         1 2O2       0.059700
     40 H9          -1.1120    -1.4540    -0.7000 h1         1 2O2       0.059700
     41 H10         -3.6740    -2.9130     0.0690 h1         1 2O2       0.073700
     42 H11         -2.8370    -3.0580     2.3470 h1         1 2O2       0.042700
     43 H12         -0.2740    -1.6860     1.4170 hc         1 2O2       0.096700
     44 H13         -0.4920    -2.8510     2.7580 hc         1 2O2       0.096700
     45 H14         -0.5440    -4.6730     1.3200 h2         1 2O2       0.057700
     46 H15         -0.4970    -2.9570    -1.7580 h4         1 2O2       0.191000
     47 H16          3.8200    -3.7300     0.3080 hn         1 2O2       0.323500
     48 H17          0.5500    -2.3220    -3.9270 ha         1 2O2       0.163000
     49 H18          3.5790    -2.6610    -3.7840 ha         1 2O2       0.126000
@<TRIPOS>BOND
     1    32    30 1   
     2    26    25 2   
     3    30    31 1   
     4    30    33 1   
     5    30    29 1   
     6    28    27 1   
     7    28    29 2   
     8    25    27 1   
     9    25    24 1   
    10    27    21 2   
    11    24    22 1   
    12    21    20 1   
    13    22    23 2   
    14    22    20 1   
    15    20    19 1   
    16    19    18 1   
    17    19    16 1   
    18    18    17 1   
    19     2     1 ar  
    20     2     3 ar  
    21    16    15 1   
    22     1     6 ar  
    23    17    12 1   
    24    17    15 1   
    25     3     4 ar  
    26    12     7 1   
    27    15    14 1   
    28     6     7 1   
    29     6     5 ar  
    30     4     5 ar  
    31     7    13 1   
    32     7     8 1   
    33    13    14 1   
    34    11     8 1   
    35     8    10 1   
    36     8     9 1   
    37     1    34 1   
    38     2    35 1   
    39     3    36 1   
    40     4    37 1   
    41     5    38 1   
    42    14    39 1   
    43    14    40 1   
    44    15    41 1   
    45    17    42 1   
    46    18    43 1   
    47    18    44 1   
    48    19    45 1   
    49    21    46 1   
    50    24    47 1   
    51    28    48 1   
    52    29    49 1   
@<TRIPOS>SUBSTRUCTURE
     1 2O2         1 TEMP              0 ****  ****    0 ROOT
