@<TRIPOS>MOLECULE
2O2
   49    51     1     0     0
SMALL
bcc


@<TRIPOS>ATOM
      1 CAV        -0.2970    1.9110    1.6180 ca        1 2O2     -0.170000
      2 CAW         0.8790    2.5400    2.0010 ca        1 2O2     -0.125000
      3 CAX         1.7220    1.9600    2.9520 ca        1 2O2     -0.244000
      4 CAY         1.3620    0.7360    3.5200 ca        1 2O2     -0.125000
      5 CAZ         0.1890    0.0970    3.1450 ca        1 2O2     -0.170000
      6 CAU        -0.6720    0.6680    2.1800 ca        1 2O2      0.068000
      7 CAB        -1.9750    0.1010    1.9060 c2        1 2O2     -0.292000
      8 PAA        -4.0770    0.4300    2.8830 p3        1 2O2      2.525000
      9 OBB        -4.2620    1.8830    2.6140 o         1 2O2     -1.194000
     10 OBC        -4.9170   -0.5190    2.1030 o         1 2O2     -1.194000
     11 OBA        -3.7770    0.0670    4.2960 o         1 2O2     -1.194000
     12 OAH        -2.2090   -1.2360    2.1930 os        1 2O2     -0.204000
     13 OAD        -2.6200    0.4410    0.7290 os        1 2O2     -0.211000
     14 CAC        -2.1120   -0.2380   -0.4210 c3        1 2O2     -0.053000
     15 CAE        -2.2920   -1.7430   -0.2500 c3        1 2O2     -0.020000
     16 OAF        -1.4230   -2.4640   -1.1480 os        1 2O2     -0.304000
     17 CAG        -1.9470   -2.1950    1.1830 c3        1 2O2      0.005000
     18 CAI        -0.4940   -2.6680    1.0550 c3        1 2O2     -0.215000
     19 CAJ        -0.4210   -3.1890   -0.3980 c3        1 2O2      0.173000
     20 N1          0.8700   -3.1000   -1.0760 n         1 2O2     -0.267000
     21 C6          0.9260   -3.1140   -2.4760 c2        1 2O2      0.013000
     22 C2          2.0680   -3.2000   -0.3470 c2        1 2O2      0.403000
     23 O2          2.1130   -3.4440    0.8870 o         1 2O2     -0.440000
     24 N3          3.2740   -3.0140   -1.0410 n         1 2O2     -0.380000
     25 C4          3.3540   -2.8530   -2.4440 c2        1 2O2      0.371000
     26 O4          4.4730   -2.5430   -2.8930 o         1 2O2     -0.384000
     27 C5          2.0870   -3.0150   -3.1850 c2        1 2O2     -0.085000
     28 CAR         2.1210   -2.9840   -4.6380 c2        1 2O2     -0.221000
     29 CAS         2.2340   -3.9970   -5.5050 c2        1 2O2     -0.526000
     30 PBD         2.4110   -5.9110   -5.7430 p5        1 2O2      1.609500
     31 OBF         1.0830   -6.2160   -6.3880 o         1 2O2     -0.937167
     32 OBG         3.5760   -5.9260   -6.7010 o         1 2O2     -0.937167
     33 OBE         2.6600   -6.5560   -4.4100 o         1 2O2     -0.937167
     34 H1         -0.9740    2.3710    0.8850 ha        1 2O2      0.136500
     35 H2          1.1540    3.5040    1.5500 ha        1 2O2      0.078000
     36 H3          2.6530    2.4570    3.2460 ha        1 2O2      0.073000
     37 H4          2.0210    0.2710    4.2670 ha        1 2O2      0.078000
     38 H5         -0.1050   -0.8610    3.5980 ha        1 2O2      0.136500
     39 H8         -2.7230    0.1440   -1.2760 h1        1 2O2      0.069000
     40 H9         -1.0310    0.0130   -0.5770 h1        1 2O2      0.069000
     41 H10        -3.3350   -2.0460   -0.5290 h1        1 2O2      0.113000
     42 H11        -2.6060   -3.0580    1.4800 h1        1 2O2      0.096000
     43 H12         0.2080   -1.8170    1.2370 hc        1 2O2      0.114000
     44 H13        -0.2460   -3.4820    1.7730 hc        1 2O2      0.114000
     45 H14        -0.7360   -4.2770   -0.4440 h2        1 2O2      0.083000
     46 H15        -0.0570   -3.2070   -2.9770 h4        1 2O2      0.182000
     47 H16         4.1080   -3.0680   -0.5030 hn        1 2O2      0.228000
     48 H17         2.0620   -1.9360   -4.9990 ha        1 2O2      0.036000
     49 H18         2.2380   -3.6820   -6.5670 ha        1 2O2      0.058000
@<TRIPOS>BOND
     1    1    2 1   
     2    1    6 1   
     3    1   34 1   
     4    2    3 1   
     5    2   35 1   
     6    3    4 1   
     7    3   36 1   
     8    4    5 1   
     9    4   37 1   
    10    5    6 1   
    11    5   38 1   
    12    6    7 1   
    13    7   12 1   
    14    7   13 1   
    15    8    9 1   
    16    8   10 1   
    17    8   11 1   
    18   12   17 1   
    19   13   14 1   
    20   14   15 1   
    21   14   39 1   
    22   14   40 1   
    23   15   16 1   
    24   15   17 1   
    25   15   41 1   
    26   16   19 1   
    27   17   18 1   
    28   17   42 1   
    29   18   19 1   
    30   18   43 1   
    31   18   44 1   
    32   19   20 1   
    33   19   45 1   
    34   20   21 1   
    35   20   22 1   
    36   21   27 1   
    37   21   46 1   
    38   22   23 1   
    39   22   24 1   
    40   24   25 1   
    41   24   47 1   
    42   25   26 1   
    43   25   27 1   
    44   27   28 1   
    45   28   29 1   
    46   28   48 1   
    47   29   30 1   
    48   29   49 1   
    49   30   31 1   
    50   30   32 1   
    51   30   33 1   
@<TRIPOS>SUBSTRUCTURE
     1 2O2         1 TEMP              0 ****  ****    0 ROOT
