@<TRIPOS>MOLECULE
molecule
   54    57     1     0     0
SMALL
bcc


@<TRIPOS>ATOM
      1 CAS          0.0000     0.0000     0.0000 c3         1 2O3       0.163800
      2 CAT          1.5330     0.0000     0.0000 c3         1 2O3      -0.085400
      3 CAU          2.0050     0.0000     1.4560 c3         1 2O3      -0.032100
      4 CAV          1.2450    -1.0440     2.2360 ca         1 2O3      -0.123300
      5 CBA          1.7420    -1.4290     3.4700 ca         1 2O3      -0.102000
      6 CAZ          1.0820    -2.3770     4.2270 ca         1 2O3      -0.157000
      7 CAY         -0.0850    -2.9470     3.7530 ca         1 2O3      -0.104000
      8 CAX         -0.5850    -2.5700     2.5250 ca         1 2O3      -0.173000
      9 CAW          0.0790    -1.6150     1.7540 ca         1 2O3       0.121600
     10 NAR         -0.4690    -1.2880     0.5140 nh         1 2O3      -0.598000
     11 CAQ         -1.9370    -1.3340     0.5600 c3         1 2O3       0.168800
     12 CAP         -2.4990    -1.0740    -0.8400 c3         1 2O3      -0.108400
     13 CAO         -4.0190    -1.2480    -0.8200 c3         1 2O3       0.114000
     14 NAN         -4.5560    -0.9990    -2.1590 ns         1 2O3      -0.590900
     15 CAM         -5.8820    -1.0960    -2.3810 c          1 2O3       0.669700
     16 OBB         -6.6320    -1.3900    -1.4700 o          1 2O3      -0.573100
     17 CAL         -6.4230    -0.8450    -3.7290 ca         1 2O3      -0.109600
     18 CAG         -7.8020    -0.9440    -3.9660 ca         1 2O3       0.102600
     19 N           -8.6640    -1.2850    -2.9320 nu         1 2O3      -0.655600
     20 CA          -9.9490    -0.5860    -3.0360 c3         1 2O3       0.097500
     21 CB         -10.9280    -1.1660    -2.0130 c3         1 2O3      -0.078100
     22 C          -10.5180    -0.7520    -4.4220 c          1 2O3       0.657500
     23 O          -11.7160    -0.8460    -4.5860 o          1 2O3      -0.615500
     24 NAC         -9.6790    -0.7970    -5.4810 ns         1 2O3      -0.470100
     25 CAH         -8.2980    -0.7010    -5.2470 ca         1 2O3       0.011600
     26 CAI         -7.4350    -0.3680    -6.2760 ca         1 2O3      -0.133000
     27 CAJ         -6.0730    -0.2710    -6.0390 ca         1 2O3      -0.118000
     28 CAK         -5.5660    -0.5000    -4.7790 ca         1 2O3      -0.124000
     29 H1          -0.3620     0.1400    -1.0110 h1         1 2O3       0.041700
     30 H2          -0.3630     0.7980     0.6360 h1         1 2O3       0.041700
     31 H3           1.8880    -0.9010    -0.4870 hc         1 2O3       0.056700
     32 H4           1.8870     0.9010    -0.4870 hc         1 2O3       0.056700
     33 H5           1.8030     0.9730     1.8880 hc         1 2O3       0.052700
     34 H6           3.0590    -0.2460     1.4810 hc         1 2O3       0.052700
     35 H7           2.6570    -0.9850     3.8440 ha         1 2O3       0.129000
     36 H8           1.4770    -2.6720     5.1910 ha         1 2O3       0.129000
     37 H9          -0.6040    -3.6910     4.3450 ha         1 2O3       0.129000
     38 H10         -1.4990    -3.0180     2.1560 ha         1 2O3       0.135000
     39 H11         -2.3010    -0.5750     1.2420 h1         1 2O3       0.049700
     40 H12         -2.2570    -2.3110     0.9020 h1         1 2O3       0.049700
     41 H13         -2.0640    -1.7780    -1.5390 hc         1 2O3       0.053700
     42 H14         -2.2550    -0.0640    -1.1450 hc         1 2O3       0.053700
     43 H15         -4.4540    -0.5450    -0.1190 h1         1 2O3       0.054700
     44 H16         -4.2630    -2.2590    -0.5150 h1         1 2O3       0.054700
     45 H17         -3.9360    -0.7870    -2.9150 hn         1 2O3       0.312500
     46 H18         -8.8200    -2.2730    -2.9400 hn         1 2O3       0.388800
     47 H19         -9.7990     0.4690    -2.8370 h1         1 2O3       0.096700
     48 H20        -10.4750    -1.1460    -1.0290 hc         1 2O3       0.053700
     49 H21        -11.8350    -0.5750    -2.0050 hc         1 2O3       0.053700
     50 H22        -11.1650    -2.1890    -2.2800 hc         1 2O3       0.053700
     51 H23        -10.0160    -1.1010    -6.3730 hn         1 2O3       0.337500
     52 H24         -7.8250    -0.1870    -7.2700 ha         1 2O3       0.140000
     53 H25         -5.4030    -0.0050    -6.8480 ha         1 2O3       0.138000
     54 H26         -4.5000    -0.4220    -4.6030 ha         1 2O3       0.130000
@<TRIPOS>BOND
     1    26    27 ar  
     2    26    25 ar  
     3    27    28 ar  
     4    24    25 1   
     5    24    22 1   
     6    25    18 ar  
     7    28    17 ar  
     8    23    22 2   
     9    22    20 1   
    10    18    17 ar  
    11    18    19 1   
    12    17    15 1   
    13     7     6 ar  
    14     7     8 ar  
    15    20    19 1   
    16    20    21 1   
    17     6     5 ar  
    18     8     9 ar  
    19    15    14 1   
    20    15    16 2   
    21    14    13 1   
    22     5     4 ar  
    23     9     4 ar  
    24     9    10 1   
    25     4     3 1   
    26    11    10 1   
    27    11    12 1   
    28    13    12 1   
    29    10     1 1   
    30     3     2 1   
    31     1     2 1   
    32     1    29 1   
    33     1    30 1   
    34     2    31 1   
    35     2    32 1   
    36     3    33 1   
    37     3    34 1   
    38     5    35 1   
    39     6    36 1   
    40     7    37 1   
    41     8    38 1   
    42    11    39 1   
    43    11    40 1   
    44    12    41 1   
    45    12    42 1   
    46    13    43 1   
    47    13    44 1   
    48    14    45 1   
    49    19    46 1   
    50    20    47 1   
    51    21    48 1   
    52    21    49 1   
    53    21    50 1   
    54    24    51 1   
    55    26    52 1   
    56    27    53 1   
    57    28    54 1   
@<TRIPOS>SUBSTRUCTURE
     1 2O3         1 TEMP              0 ****  ****    0 ROOT
