@<TRIPOS>MOLECULE
molecule
   58    61     1     0     0
SMALL
bcc


@<TRIPOS>ATOM
      1 C4           0.0000     0.0000     0.0000 ca         1 2O4      -0.134000
      2 C14         10.4540     1.5630     6.1850 c3         1 2O4      -0.025100
      3 C5           1.3860     0.0000     0.0000 ca         1 2O4      -0.118000
      4 C6           2.0820     0.0000     1.1880 ca         1 2O4      -0.124000
      5 C11          6.5010    -0.0010     5.9680 c3         1 2O4       0.165800
      6 C7           1.3940     0.0000     2.4050 ca         1 2O4      -0.110600
      7 C8           2.1390     0.0010     3.6780 c          1 2O4       0.668700
      8 C10          5.7290    -0.0010     4.6470 c3         1 2O4      -0.107400
      9 C12          8.2540     1.3930     5.0570 c3         1 2O4       0.165800
     10 C13          9.7680     1.4640     4.8200 c3         1 2O4      -0.084400
     11 N1           3.4860     0.0000     3.6710 ns         1 2O4      -0.589900
     12 N2           7.9400     0.1120     5.6930 nh         1 2O4      -0.597000
     13 C3          -0.6960     0.0060     1.1950 ca         1 2O4       0.011600
     14 N3          -0.7020     0.0070     3.6100 nu         1 2O4      -0.657600
     15 C2          -2.7420    -0.3580     2.3320 c          1 2O4       0.658500
     16 N           -2.1010     0.0070     1.2000 ns         1 2O4      -0.468100
     17 C22         -0.0080     0.0020     2.4090 ca         1 2O4       0.104600
     18 C1          -1.9350    -0.7850     3.5360 c3         1 2O4       0.100500
     19 C           -1.5770    -2.2690     3.4260 c3         1 2O4      -0.084100
     20 O1           1.5370     0.0010     4.7350 o          1 2O4      -0.574100
     21 C20          8.6890    -0.1260     6.8460 ca         1 2O4       0.158600
     22 C19          8.2000    -1.0690     7.7500 ca         1 2O4      -0.210000
     23 C18          8.8990    -1.3530     8.9090 ca         1 2O4       0.164100
     24 O            8.4180    -2.2740     9.7860 os         1 2O4      -0.329900
     25 C21          9.1930    -2.5160    10.9620 c3         1 2O4       0.129700
     26 C17         10.0930    -0.6980     9.1740 ca         1 2O4      -0.247000
     27 C16         10.5760     0.2360     8.2800 ca         1 2O4      -0.064000
     28 C15          9.8790     0.5270     7.1190 ca         1 2O4      -0.160300
     29 H1          -0.5400    -0.0000    -0.9390 ha         1 2O4       0.139000
     30 H3          10.2890     2.5510     6.5990 hc         1 2O4       0.048700
     31 H4           1.9240    -0.0000    -0.9400 ha         1 2O4       0.138000
     32 H5           3.1660    -0.0000     1.1790 ha         1 2O4       0.130000
     33 H6           6.3070    -0.9250     6.5000 h1         1 2O4       0.052700
     34 H7           6.1820     0.8380     6.5730 h1         1 2O4       0.052700
     35 H10          5.9870    -0.8860     4.0780 hc         1 2O4       0.053200
     36 H11          5.9880     0.8830     4.0780 hc         1 2O4       0.053200
     37 H12          7.9500     2.2050     5.7070 h1         1 2O4       0.042200
     38 H13          7.7350     1.4640     4.1090 h1         1 2O4       0.042200
     39 H14         10.0040     2.3410     4.2290 hc         1 2O4       0.054700
     40 H15         10.1000     0.5690     4.3080 hc         1 2O4       0.054700
     41 H16          3.9810    -0.0040     2.8010 hn         1 2O4       0.312500
     42 H17         -0.9260     0.9490     3.8620 hn         1 2O4       0.388800
     43 H18         -2.6030     0.4640     0.4650 hn         1 2O4       0.337500
     44 H19         -2.5190    -0.6190     4.4330 h1         1 2O4       0.102700
     45 H20         -2.4440    -2.8690     3.6750 hc         1 2O4       0.052367
     46 H21         -0.7700    -2.4980     4.1120 hc         1 2O4       0.052367
     47 H22         -1.2630    -2.4910     2.4130 hc         1 2O4       0.052367
     48 H23          7.2750    -1.5920     7.5360 ha         1 2O4       0.150000
     49 H24          9.2880    -1.5960    11.5270 h1         1 2O4       0.041033
     50 H25          8.7000    -3.2640    11.5710 h1         1 2O4       0.041033
     51 H26         10.1770    -2.8700    10.6800 h1         1 2O4       0.041033
     52 H27         10.6440    -0.9170    10.0810 ha         1 2O4       0.134000
     53 H28         11.5090     0.7470     8.4880 ha         1 2O4       0.130000
     54 O2          -3.9540    -0.3560     2.3770 o          1 2O4      -0.616500
     55 C9           4.2260    -0.0000     4.9350 c3         1 2O4       0.114000
     56 H2          11.5160     1.3890     6.0670 hc         1 2O4       0.048700
     57 H8           3.9670    -0.8850     5.5040 h1         1 2O4       0.054700
     58 H9           3.9680     0.8840     5.5040 h1         1 2O4       0.054700
@<TRIPOS>BOND
     1    55    11 1   
     2    55     8 1   
     3    11     7 1   
     4    20     7 2   
     5     7     6 1   
     6     6     4 ar  
     7     6    17 ar  
     8    18    19 1   
     9    18    14 1   
    10    18    15 1   
    11     4     3 ar  
    12     8     5 1   
    13    17    14 1   
    14    17    13 ar  
    15     3     1 ar  
    16     5    12 1   
    17    13     1 ar  
    18    13    16 1   
    19    15    16 1   
    20    15    54 2   
    21     9    12 1   
    22     9    10 1   
    23    12    21 1   
    24    10     2 1   
    25    21    22 ar  
    26    21    28 ar  
    27    22    23 ar  
    28    25    24 1   
    29     2    28 1   
    30    28    27 ar  
    31    23    24 1   
    32    23    26 ar  
    33    27    26 ar  
    34     1    29 1   
    35     2    56 1   
    36     2    30 1   
    37     3    31 1   
    38     4    32 1   
    39     5    33 1   
    40     5    34 1   
    41    55    57 1   
    42    55    58 1   
    43     8    35 1   
    44     8    36 1   
    45     9    37 1   
    46     9    38 1   
    47    10    39 1   
    48    10    40 1   
    49    11    41 1   
    50    14    42 1   
    51    16    43 1   
    52    18    44 1   
    53    19    45 1   
    54    19    46 1   
    55    19    47 1   
    56    22    48 1   
    57    25    49 1   
    58    25    50 1   
    59    25    51 1   
    60    26    52 1   
    61    27    53 1   
@<TRIPOS>SUBSTRUCTURE
     1 2O4         1 TEMP              0 ****  ****    0 ROOT
