@<TRIPOS>MOLECULE
2O4
   58    61     1     0     0
SMALL
bcc


@<TRIPOS>ATOM
      1 C4           0.0000     0.0000     0.0000 ca         1 2O4      -0.099000
      2 C14         10.4540     1.5630     6.1850 c3         1 2O4       0.046900
      3 C5           1.3860     0.0000     0.0000 ca         1 2O4      -0.090000
      4 C6           2.0820     0.0000     1.1880 ca         1 2O4      -0.097000
      5 C11          6.5010    -0.0010     5.9680 c3         1 2O4       0.129800
      6 C7           1.3940     0.0000     2.4050 ca         1 2O4      -0.121600
      7 C8           2.1390     0.0010     3.6780 c          1 2O4       0.590700
      8 C10          5.7290    -0.0010     4.6470 c3         1 2O4      -0.055400
      9 C12          8.2540     1.3930     5.0570 c3         1 2O4       0.132800
     10 C13          9.7680     1.4640     4.8200 c3         1 2O4      -0.028400
     11 N1           3.4860     0.0000     3.6710 ns         1 2O4      -0.207900
     12 N2           7.9400     0.1120     5.6930 nh         1 2O4      -0.349000
     13 C3          -0.6960     0.0060     1.1950 ca         1 2O4      -0.133400
     14 N3          -0.7020     0.0070     3.6100 nu         1 2O4      -0.369600
     15 C2          -2.7420    -0.3580     2.3320 c          1 2O4       0.567500
     16 N           -2.1010     0.0070     1.2000 ns         1 2O4      -0.030100
     17 C22         -0.0080     0.0020     2.4090 ca         1 2O4       0.033600
     18 C1          -1.9350    -0.7850     3.5360 c3         1 2O4       0.040500
     19 C           -1.5770    -2.2690     3.4260 c3         1 2O4       0.008900
     20 O1           1.5370     0.0010     4.7350 o          1 2O4      -0.623100
     21 C20          8.6890    -0.1260     6.8460 ca         1 2O4       0.076600
     22 C19          8.2000    -1.0690     7.7500 ca         1 2O4      -0.206000
     23 C18          8.8990    -1.3530     8.9090 ca         1 2O4       0.177100
     24 O            8.4180    -2.2740     9.7860 os         1 2O4      -0.308900
     25 C21          9.1930    -2.5160    10.9620 c3         1 2O4       0.244700
     26 C17         10.0930    -0.6980     9.1740 ca         1 2O4      -0.237000
     27 C16         10.5760     0.2360     8.2800 ca         1 2O4      -0.030000
     28 C15          9.8790     0.5270     7.1190 ca         1 2O4      -0.167300
     29 H1          -0.5400    -0.0000    -0.9390 ha         1 2O4       0.111000
     30 H3          10.2890     2.5510     6.5990 hc         1 2O4       0.018200
     31 H4           1.9240    -0.0000    -0.9400 ha         1 2O4       0.107000
     32 H5           3.1660    -0.0000     1.1790 ha         1 2O4       0.105000
     33 H6           6.3070    -0.9250     6.5000 h1         1 2O4       0.030200
     34 H7           6.1820     0.8380     6.5730 h1         1 2O4       0.030200
     35 H10          5.9870    -0.8860     4.0780 hc         1 2O4       0.025700
     36 H11          5.9880     0.8830     4.0780 hc         1 2O4       0.025700
     37 H12          7.9500     2.2050     5.7070 h1         1 2O4       0.017700
     38 H13          7.7350     1.4640     4.1090 h1         1 2O4       0.017700
     39 H14         10.0040     2.3410     4.2290 hc         1 2O4       0.023200
     40 H15         10.1000     0.5690     4.3080 hc         1 2O4       0.023200
     41 H16          3.9810    -0.0040     2.8010 hn         1 2O4       0.178500
     42 H17         -0.9260     0.9490     3.8620 hn         1 2O4       0.268800
     43 H18         -2.6030     0.4640     0.4650 hn         1 2O4       0.182500
     44 H19         -2.5190    -0.6190     4.4330 h1         1 2O4       0.065700
     45 H20         -2.4440    -2.8690     3.6750 hc         1 2O4       0.016033
     46 H21         -0.7700    -2.4980     4.1120 hc         1 2O4       0.016033
     47 H22         -1.2630    -2.4910     2.4130 hc         1 2O4       0.016033
     48 H23          7.2750    -1.5920     7.5360 ha         1 2O4       0.135000
     49 H24          9.2880    -1.5960    11.5270 h1         1 2O4      -0.002633
     50 H25          8.7000    -3.2640    11.5710 h1         1 2O4      -0.002633
     51 H26         10.1770    -2.8700    10.6800 h1         1 2O4      -0.002633
     52 H27         10.6440    -0.9170    10.0810 ha         1 2O4       0.121000
     53 H28         11.5090     0.7470     8.4880 ha         1 2O4       0.101000
     54 O2          -3.9540    -0.3560     2.3770 o          1 2O4      -0.650500
     55 C9           4.2260    -0.0000     4.9350 c3         1 2O4       0.054000
     56 H2          11.5160     1.3890     6.0670 hc         1 2O4       0.018200
     57 H8           3.9670    -0.8850     5.5040 h1         1 2O4       0.027700
     58 H9           3.9680     0.8840     5.5040 h1         1 2O4       0.027700
@<TRIPOS>BOND
     1     1     3 ar  
     2     1    13 ar  
     3     1    29 1   
     4     2    10 1   
     5     2    28 1   
     6     2    30 1   
     7     2    56 1   
     8     3     4 ar  
     9     3    31 1   
    10     4     6 ar  
    11     4    32 1   
    12     5     8 1   
    13     5    12 1   
    14     5    33 1   
    15     5    34 1   
    16     6     7 1   
    17     6    17 ar  
    18     7    11 1   
    19     7    20 2   
    20     8    35 1   
    21     8    36 1   
    22     8    55 1   
    23     9    10 1   
    24     9    12 1   
    25     9    37 1   
    26     9    38 1   
    27    10    39 1   
    28    10    40 1   
    29    11    41 1   
    30    11    55 1   
    31    12    21 1   
    32    13    16 1   
    33    13    17 ar  
    34    14    17 1   
    35    14    18 1   
    36    14    42 1   
    37    15    16 1   
    38    15    18 1   
    39    15    54 2   
    40    16    43 1   
    41    18    19 1   
    42    18    44 1   
    43    19    45 1   
    44    19    46 1   
    45    19    47 1   
    46    21    22 ar  
    47    21    28 ar  
    48    22    23 ar  
    49    22    48 1   
    50    23    24 1   
    51    23    26 ar  
    52    24    25 1   
    53    25    49 1   
    54    25    50 1   
    55    25    51 1   
    56    26    27 ar  
    57    26    52 1   
    58    27    28 ar  
    59    27    53 1   
    60    55    57 1   
    61    55    58 1   
@<TRIPOS>SUBSTRUCTURE
     1 2O4         1 TEMP              0 ****  ****    0 ROOT
