@<TRIPOS>MOLECULE
2O5
   43    46     1     0     0
SMALL
bcc


@<TRIPOS>ATOM
      1 O            0.0000     0.0000     0.0000 o          1 2O5      -0.892800
      2 C16          1.3420     0.0000     0.0000 c          1 2O5       0.981600
      3 O1           1.9470     0.0000     1.0460 o          1 2O5      -0.892800
      4 C15          2.0950     0.0000    -1.3060 c3         1 2O5      -0.098100
      5 C12          3.5760     0.0010    -1.0300 ca         1 2O5       0.009700
      6 C11          4.2550    -1.1990    -0.9050 ca         1 2O5      -0.089000
      7 C10          5.6120    -1.2020    -0.6530 ca         1 2O5      -0.109000
      8 C13          4.2560     1.1990    -0.9100 ca         1 2O5      -0.089000
      9 C14          5.6130     1.2020    -0.6580 ca         1 2O5      -0.109000
     10 C9           6.2970    -0.0010    -0.5260 ca         1 2O5      -0.076400
     11 N3           7.6720    -0.0010    -0.2710 nu         1 2O5      -0.242300
     12 C8           8.2170    -0.9470     0.5750 ca         1 2O5       0.730900
     13 N1           9.5370    -1.0190     0.7320 nb         1 2O5      -0.766000
     14 C7          10.0590    -1.9230     1.5410 ca         1 2O5       0.712300
     15 C17         11.5550    -2.0010     1.7160 cx         1 2O5      -0.153000
     16 C19         12.3970    -2.2830     0.4700 cx         1 2O5      -0.071900
     17 C18         12.3970    -0.8870     1.0920 cx         1 2O5      -0.071900
     18 N            9.2750    -2.7590     2.1980 nb         1 2O5      -0.736000
     19 N2           7.4250    -1.7830     1.2380 nb         1 2O5      -0.709000
     20 C6           7.9530    -2.6930     2.0480 cp         1 2O5       0.740500
     21 C2           7.0740    -3.6290     2.7890 cp         1 2O5      -0.162500
     22 C1           5.6900    -3.5550     2.6390 ca         1 2O5      -0.043000
     23 C3           7.6280    -4.5890     3.6340 ca         1 2O5      -0.063000
     24 C4           6.8030    -5.4570     4.3220 ca         1 2O5      -0.051600
     25 Cl           7.4910    -6.6540     5.3760 cl         1 2O5      -0.056400
     26 C5           5.4300    -5.3750     4.1740 ca         1 2O5      -0.088000
     27 C            4.8760    -4.4280     3.3310 ca         1 2O5      -0.100000
     28 H2           1.8340    -0.8840    -1.8740 hc         1 2O5       0.014200
     29 H3           1.8330     0.8850    -1.8740 hc         1 2O5       0.014200
     30 H4           3.7210    -2.1360    -1.0040 ha         1 2O5       0.107000
     31 H5           6.1430    -2.1410    -0.5530 ha         1 2O5       0.100500
     32 H6           3.7230     2.1360    -1.0130 ha         1 2O5       0.107000
     33 H7           6.1450     2.1410    -0.5620 ha         1 2O5       0.100500
     34 H8           8.2660     0.6630    -0.7280 hn         1 2O5       0.281800
     35 H9          11.9540    -2.4110     2.6350 hc         1 2O5       0.067700
     36 H10         13.2940    -2.8690     0.6350 hc         1 2O5       0.048450
     37 H11         11.8440    -2.3830    -0.4560 hc         1 2O5       0.048450
     38 H12         11.8440    -0.1320     0.5460 hc         1 2O5       0.048450
     39 H13         13.2940    -0.6180     1.6370 hc         1 2O5       0.048450
     40 H14          5.2550    -2.8140     1.9800 ha         1 2O5       0.149000
     41 H15          8.7040    -4.7000     3.6940 ha         1 2O5       0.131000
     42 H16          4.7870    -6.0580     4.7150 ha         1 2O5       0.108000
     43 H17          3.8010    -4.3690     3.2170 ha         1 2O5       0.120000
@<TRIPOS>BOND
     1     1     2 1   
     2     2     3 1   
     3     2     4 1   
     4     4     5 1   
     5     4    28 1   
     6     4    29 1   
     7     5     6 ar  
     8     5     8 ar  
     9     6     7 ar  
    10     6    30 1   
    11     7    10 ar  
    12     7    31 1   
    13     8     9 ar  
    14     8    32 1   
    15     9    10 ar  
    16     9    33 1   
    17    10    11 1   
    18    11    12 1   
    19    11    34 1   
    20    12    13 ar  
    21    12    19 ar  
    22    13    14 ar  
    23    14    15 1   
    24    14    18 ar  
    25    15    16 1   
    26    15    17 1   
    27    15    35 1   
    28    16    17 1   
    29    16    36 1   
    30    16    37 1   
    31    17    38 1   
    32    17    39 1   
    33    18    20 ar  
    34    19    20 ar  
    35    20    21 1   
    36    21    22 ar  
    37    21    23 ar  
    38    22    27 ar  
    39    22    40 1   
    40    23    24 ar  
    41    23    41 1   
    42    24    25 1   
    43    24    26 ar  
    44    26    27 ar  
    45    26    42 1   
    46    27    43 1   
@<TRIPOS>SUBSTRUCTURE
     1 2O5         1 TEMP              0 ****  ****    0 ROOT
