@<TRIPOS>MOLECULE
molecule
   43    46     1     0     0
SMALL
bcc


@<TRIPOS>ATOM
      1 O            0.0000     0.0000     0.0000 o          1 2O5      -0.842300
      2 C16          1.3420     0.0000     0.0000 c          1 2O5       0.892600
      3 O1           1.9470     0.0000     1.0460 o          1 2O5      -0.842300
      4 C15          2.0950     0.0000    -1.3060 c3         1 2O5      -0.156100
      5 C12          3.5760     0.0010    -1.0300 ca         1 2O5      -0.006300
      6 C11          4.2550    -1.1990    -0.9050 ca         1 2O5      -0.113000
      7 C10          5.6120    -1.2020    -0.6530 ca         1 2O5      -0.138500
      8 C13          4.2560     1.1990    -0.9100 ca         1 2O5      -0.113000
      9 C14          5.6130     1.2020    -0.6580 ca         1 2O5      -0.138500
     10 C9           6.2970    -0.0010    -0.5260 ca         1 2O5       0.098600
     11 N3           7.6720    -0.0010    -0.2710 nu         1 2O5      -0.734300
     12 C8           8.2170    -0.9470     0.5750 ca         1 2O5       0.973900
     13 N1           9.5370    -1.0190     0.7320 nb         1 2O5      -0.867000
     14 C7          10.0590    -1.9230     1.5410 ca         1 2O5       0.788300
     15 C17         11.5550    -2.0010     1.7160 cx         1 2O5      -0.171000
     16 C19         12.3970    -2.2830     0.4700 cx         1 2O5      -0.123400
     17 C18         12.3970    -0.8870     1.0920 cx         1 2O5      -0.123400
     18 N            9.2750    -2.7590     2.1980 nb         1 2O5      -0.834000
     19 N2           7.4250    -1.7830     1.2380 nb         1 2O5      -0.812000
     20 C6           7.9530    -2.6930     2.0480 cp         1 2O5       0.811500
     21 C2           7.0740    -3.6290     2.7890 cp         1 2O5      -0.146500
     22 C1           5.6900    -3.5550     2.6390 ca         1 2O5      -0.064000
     23 C3           7.6280    -4.5890     3.6340 ca         1 2O5      -0.080000
     24 C4           6.8030    -5.4570     4.3220 ca         1 2O5       0.004400
     25 Cl           7.4910    -6.6540     5.3760 cl         1 2O5      -0.130400
     26 C5           5.4300    -5.3750     4.1740 ca         1 2O5      -0.108000
     27 C            4.8760    -4.4280     3.3310 ca         1 2O5      -0.131000
     28 H2           1.8340    -0.8840    -1.8740 hc         1 2O5       0.040700
     29 H3           1.8330     0.8850    -1.8740 hc         1 2O5       0.040700
     30 H4           3.7210    -2.1360    -1.0040 ha         1 2O5       0.132500
     31 H5           6.1430    -2.1410    -0.5530 ha         1 2O5       0.122000
     32 H6           3.7230     2.1360    -1.0130 ha         1 2O5       0.132500
     33 H7           6.1450     2.1410    -0.5620 ha         1 2O5       0.122000
     34 H8           8.2660     0.6630    -0.7280 hn         1 2O5       0.457800
     35 H9          11.9540    -2.4110     2.6350 hc         1 2O5       0.099700
     36 H10         13.2940    -2.8690     0.6350 hc         1 2O5       0.080200
     37 H11         11.8440    -2.3830    -0.4560 hc         1 2O5       0.080200
     38 H12         11.8440    -0.1320     0.5460 hc         1 2O5       0.080200
     39 H13         13.2940    -0.6180     1.6370 hc         1 2O5       0.080200
     40 H14          5.2550    -2.8140     1.9800 ha         1 2O5       0.184000
     41 H15          8.7040    -4.7000     3.6940 ha         1 2O5       0.162000
     42 H16          4.7870    -6.0580     4.7150 ha         1 2O5       0.138000
     43 H17          3.8010    -4.3690     3.2170 ha         1 2O5       0.154000
@<TRIPOS>BOND
     1     3     2 1   
     2     2     1 1   
     3     2     4 1   
     4     8     9 ar  
     5     8     5 ar  
     6     9    10 ar  
     7     4     5 1   
     8     5     6 ar  
     9    10    11 1   
    10    10     7 ar  
    11    11    12 1   
    12    17    15 1   
    13    17    16 1   
    14     6     7 ar  
    15    12    13 ar  
    16    12    19 ar  
    17    13    14 ar  
    18    19    20 ar  
    19    14    15 1   
    20    14    18 ar  
    21    15    16 1   
    22    20    18 ar  
    23    20    21 1   
    24    23    21 ar  
    25    23    24 ar  
    26    21    22 ar  
    27    25    24 1   
    28    24    26 ar  
    29    22    27 ar  
    30    26    27 ar  
    31     4    28 1   
    32     4    29 1   
    33     6    30 1   
    34     7    31 1   
    35     8    32 1   
    36     9    33 1   
    37    11    34 1   
    38    15    35 1   
    39    16    36 1   
    40    16    37 1   
    41    17    38 1   
    42    17    39 1   
    43    22    40 1   
    44    23    41 1   
    45    26    42 1   
    46    27    43 1   
@<TRIPOS>SUBSTRUCTURE
     1 2O5         1 TEMP              0 ****  ****    0 ROOT
