@<TRIPOS>MOLECULE
2O6
   19    19     1     0     0
SMALL
bcc


@<TRIPOS>ATOM
      1 N1          0.2450    0.4240    0.4770 n2        1 2O6     -0.497200
      2 C1          2.2820   -0.1180    3.9750 ce        1 2O6     -0.170300
      3 C2          3.4280    0.0950    3.0630 ce        1 2O6     -0.109100
      4 O1          1.5300    0.2540    0.2140 os        1 2O6     -0.095600
      5 C3          3.0880    0.6530    1.9260 c1        1 2O6     -0.041800
      6 C4          2.3870    1.1440    0.9370 c2        1 2O6     -0.005000
      7 C5          0.3810   -1.0810    2.4980 ce        1 2O6     -0.249700
      8 C6          1.2160   -0.5980    3.3750 c1        1 2O6      0.060200
      9 C7          2.3950    0.2480    5.4440 c3        1 2O6      0.700100
     10 C8         -0.3250   -0.2270    1.4960 ce        1 2O6      0.624500
     11 F1          3.6470    0.0440    5.9720 f         1 2O6     -0.231300
     12 F2          2.1190    1.5650    5.7190 f         1 2O6     -0.231300
     13 F3          1.5590   -0.4530    6.2770 f         1 2O6     -0.231300
     14 H1          4.4180   -0.2810    3.3490 ha        1 2O6      0.176000
     15 H2         -2.0580   -0.3370    2.5440 hn        1 2O6      0.421300
     16 H3         -2.2280    0.4040    1.0440 hn        1 2O6      0.421300
     17 H4          2.4040    2.1690    0.5450 h4        1 2O6      0.175000
     18 H5          0.1840   -2.1670    2.4150 ha        1 2O6      0.184000
     19 N2         -1.7150   -0.2270    1.6190 nh        1 2O6     -0.896800
@<TRIPOS>BOND
     1    1    4 1
     2    1   10 2
     3    2    3 1
     4    2    8 2
     5    2    9 1
     6    3    5 2
     7    3   14 1
     8    4    6 1
     9    5    6 2
    10    6   17 1
    11    7    8 2
    12    7   10 1
    13    7   18 1
    14    9   11 1
    15    9   12 1
    16    9   13 1
    17   10   19 1
    18   15   19 1
    19   16   19 1
@<TRIPOS>SUBSTRUCTURE
     1 2O6         1 TEMP              0 ****  ****    0 ROOT
