@<TRIPOS>MOLECULE
molecule
   43    46     1     0     0
SMALL
bcc


@<TRIPOS>ATOM
      1 C1           0.0000     0.0000     0.0000 c3         1 2O7       0.113600
      2 C3           0.7660     0.8370     2.1400 c3         1 2O7       0.096000
      3 C9           1.5330     0.0000     0.0000 c3         1 2O7      -0.071400
      4 C12         -1.1320     1.8900     0.8560 c          1 2O7       0.711700
      5 C13         -1.4240     1.8060    -0.6060 ce         1 2O7      -0.068400
      6 C14         -0.7070     0.7680    -1.0820 ce         1 2O7       0.045100
      7 C15         -0.9470    -0.2230    -2.3420 cg         1 2O7       0.218500
      8 C20         -2.4580     4.8730    -2.5260 ca         1 2O7       0.047900
      9 C21         -3.8090     4.6110    -2.7530 ca         1 2O7      -0.103000
     10 C24         -3.5990     2.5120    -1.5750 ca         1 2O7      -0.088500
     11 O28         -1.5110     2.7820     1.5960 o          1 2O7      -0.564500
     12 C32         -2.0460    -1.3410     0.5470 ca         1 2O7      -0.068300
     13 C33         -2.4120    -1.2920     1.8870 ca         1 2O7      -0.135000
     14 C35         -3.7620    -1.2340     2.2320 ca         1 2O7      -0.087500
     15 N2          -0.2880     0.8330     1.1430 n          1 2O7      -0.482800
     16 C6           1.8750     0.0000     1.4980 c3         1 2O7      -0.103400
     17 N16         -1.6750    -0.8410    -2.8630 n1         1 2O7      -0.366800
     18 C17         -2.2430     2.7690    -1.3440 ca         1 2O7      -0.032800
     19 C18         -1.6780     3.9560    -1.8230 ca         1 2O7      -0.088500
     20 C23         -4.3790     3.4290    -2.2780 ca         1 2O7       0.047900
     21 Cl26        -6.0410     3.0760    -2.5520 cl         1 2O7      -0.111900
     22 C29         -0.5930    -1.4030     0.1750 c3         1 2O7      -0.035100
     23 C37         -4.7370    -1.2240     1.2350 ca         1 2O7       0.002000
     24 C38         -4.3620    -1.2730    -0.1080 ca         1 2O7      -0.087500
     25 C40         -3.0120    -1.3310    -0.4530 ca         1 2O7      -0.135000
     26 C42         -6.0340    -1.7710     1.6290 cg         1 2O7       0.215800
     27 N43         -7.3330    -1.8170     1.7140 n1         1 2O7      -0.366800
     28 H31          1.2950     1.7820     2.1210 h1         1 2O7       0.061200
     29 H32          0.3510     0.6510     3.1230 h1         1 2O7       0.061200
     30 H91          1.8450     0.9140    -0.4900 hc         1 2O7       0.075200
     31 H92          1.8450    -0.9860    -0.3230 hc         1 2O7       0.075200
     32 H21         -4.4150     5.3230    -3.2990 ha         1 2O7       0.164000
     33 H24         -4.0330     1.5700    -1.2610 ha         1 2O7       0.154500
     34 H33         -1.6510    -1.2080     2.6540 ha         1 2O7       0.154500
     35 H35         -4.0540    -1.1960     3.2750 ha         1 2O7       0.148500
     36 H61          2.8460     0.3890     1.7800 hc         1 2O7       0.059200
     37 H62          1.7800    -1.0370     1.7960 hc         1 2O7       0.059200
     38 H18         -0.6290     4.1600    -1.6470 ha         1 2O7       0.154500
     39 H291        -0.7060    -1.8710    -0.7950 hc         1 2O7       0.069700
     40 H292         0.0690    -2.0010     0.7900 hc         1 2O7       0.069700
     41 H38         -5.1190    -1.2650    -0.8830 ha         1 2O7       0.148500
     42 H40         -2.7140    -1.3690    -1.4940 ha         1 2O7       0.154500
     43 Cl27        -1.7930     6.3520    -3.4890 cl         1 2O7      -0.111900
@<TRIPOS>BOND
     1    27    26 3   
     2    26    23 1   
     3    23    14 ar  
     4    23    24 ar  
     5    14    13 ar  
     6    24    25 ar  
     7    13    12 ar  
     8    25    12 ar  
     9    12    22 1   
    10    22     1 1   
    11    21    20 1   
    12    20    10 ar  
    13    20     9 ar  
    14    17     7 3   
    15    10    18 ar  
    16     7     6 1   
    17     9     8 ar  
    18     6     1 1   
    19     6     5 2   
    20    18     5 1   
    21    18    19 ar  
    22     1    15 1   
    23     1     3 1   
    24     5     4 1   
    25     4    15 1   
    26     4    11 2   
    27    15     2 1   
    28     8    19 ar  
    29     8    43 1   
    30     2    16 1   
    31     3    16 1   
    32     2    28 1   
    33     2    29 1   
    34     3    30 1   
    35     3    31 1   
    36     9    32 1   
    37    10    33 1   
    38    13    34 1   
    39    14    35 1   
    40    16    36 1   
    41    16    37 1   
    42    19    38 1   
    43    22    39 1   
    44    22    40 1   
    45    24    41 1   
    46    25    42 1   
@<TRIPOS>SUBSTRUCTURE
     1 2O7         1 TEMP              0 ****  ****    0 ROOT
