@<TRIPOS>MOLECULE
2O7
   43    46     1     0     0
SMALL
bcc


@<TRIPOS>ATOM
      1 C1           0.0000     0.0000     0.0000 c3         1 2O7       0.017600
      2 C3           0.7660     0.8370     2.1400 c3         1 2O7       0.059000
      3 C9           1.5330     0.0000     0.0000 c3         1 2O7      -0.016400
      4 C12         -1.1320     1.8900     0.8560 c          1 2O7       0.655700
      5 C13         -1.4240     1.8060    -0.6060 ce         1 2O7      -0.071400
      6 C14         -0.7070     0.7680    -1.0820 cf         1 2O7       0.094100
      7 C15         -0.9470    -0.2230    -2.3420 ch         1 2O7       0.187500
      8 C20         -2.4580     4.8730    -2.5260 ca         1 2O7      -0.016600
      9 C21         -3.8090     4.6110    -2.7530 ca         1 2O7      -0.087000
     10 C24         -3.5990     2.5120    -1.5750 ca         1 2O7      -0.068500
     11 O28         -1.5110     2.7820     1.5960 o          1 2O7      -0.602500
     12 C32         -2.0460    -1.3410     0.5470 ca         1 2O7      -0.077300
     13 C33         -2.4120    -1.2920     1.8870 ca         1 2O7      -0.123500
     14 C35         -3.7620    -1.2340     2.2320 ca         1 2O7      -0.059500
     15 N2          -0.2880     0.8330     1.1430 n          1 2O7      -0.183800
     16 C6           1.8750     0.0000     1.4980 c3         1 2O7      -0.046400
     17 N16         -1.6750    -0.8410    -2.8630 n1         1 2O7      -0.363800
     18 C17         -2.2430     2.7690    -1.3440 ca         1 2O7      -0.027800
     19 C18         -1.6780     3.9560    -1.8230 ca         1 2O7      -0.068500
     20 C23         -4.3790     3.4290    -2.2780 ca         1 2O7      -0.016600
     21 Cl26        -6.0410     3.0760    -2.5520 cl         1 2O7      -0.022900
     22 C29         -0.5930    -1.4030     0.1750 c3         1 2O7       0.014900
     23 C37         -4.7370    -1.2240     1.2350 ca         1 2O7       0.022000
     24 C38         -4.3620    -1.2730    -0.1080 ca         1 2O7      -0.059500
     25 C40         -3.0120    -1.3310    -0.4530 ca         1 2O7      -0.123500
     26 C42         -6.0340    -1.7710     1.6290 cg         1 2O7       0.255800
     27 N43         -7.3330    -1.8170     1.7140 n1         1 2O7      -0.413800
     28 H31          1.2950     1.7820     2.1210 h1         1 2O7       0.029700
     29 H32          0.3510     0.6510     3.1230 h1         1 2O7       0.029700
     30 H91          1.8450     0.9140    -0.4900 hc         1 2O7       0.044200
     31 H92          1.8450    -0.9860    -0.3230 hc         1 2O7       0.044200
     32 H21         -4.4150     5.3230    -3.2990 ha         1 2O7       0.129000
     33 H24         -4.0330     1.5700    -1.2610 ha         1 2O7       0.120000
     34 H33         -1.6510    -1.2080     2.6540 ha         1 2O7       0.135500
     35 H35         -4.0540    -1.1960     3.2750 ha         1 2O7       0.117500
     36 H61          2.8460     0.3890     1.7800 hc         1 2O7       0.029200
     37 H62          1.7800    -1.0370     1.7960 hc         1 2O7       0.029200
     38 H18         -0.6290     4.1600    -1.6470 ha         1 2O7       0.120000
     39 H291        -0.7060    -1.8710    -0.7950 hc         1 2O7       0.042700
     40 H292         0.0690    -2.0010     0.7900 hc         1 2O7       0.042700
     41 H38         -5.1190    -1.2650    -0.8830 ha         1 2O7       0.117500
     42 H40         -2.7140    -1.3690    -1.4940 ha         1 2O7       0.135500
     43 Cl27        -1.7930     6.3520    -3.4890 cl         1 2O7      -0.022900
@<TRIPOS>BOND
     1     1     3 1   
     2     1     6 1   
     3     1    15 1   
     4     1    22 1   
     5     2    15 1   
     6     2    16 1   
     7     2    28 1   
     8     2    29 1   
     9     3    16 1   
    10     3    30 1   
    11     3    31 1   
    12     4     5 1   
    13     4    11 2   
    14     4    15 1   
    15     5     6 2   
    16     5    18 1   
    17     6     7 1   
    18     7    17 3   
    19     8     9 ar  
    20     8    19 ar  
    21     8    43 1   
    22     9    20 ar  
    23     9    32 1   
    24    10    18 ar  
    25    10    20 ar  
    26    10    33 1   
    27    12    13 ar  
    28    12    22 1   
    29    12    25 ar  
    30    13    14 ar  
    31    13    34 1   
    32    14    23 ar  
    33    14    35 1   
    34    16    36 1   
    35    16    37 1   
    36    18    19 ar  
    37    19    38 1   
    38    20    21 1   
    39    22    39 1   
    40    22    40 1   
    41    23    24 ar  
    42    23    26 1   
    43    24    25 ar  
    44    24    41 1   
    45    25    42 1   
    46    26    27 3   
@<TRIPOS>SUBSTRUCTURE
     1 2O7         1 TEMP              0 ****  ****    0 ROOT
