@<TRIPOS>MOLECULE
molecule
   21    21     1     0     0
SMALL
bcc


@<TRIPOS>ATOM
      1 O            0.0000     0.0000     0.0000 o          1 2O8      -0.419100
      2 C01          1.9440     0.0060     3.6740 ca         1 2O8      -0.122000
      3 C02          3.3380     0.0000     3.6730 ca         1 2O8       0.085900
      4 N            1.8900    -0.0010    -1.1670 nz         1 2O8      -0.678400
      5 C03          1.2160     0.0000     0.0000 c          1 2O8       0.507700
      6 F01          2.0980    -1.1290     6.2760 f          1 2O8      -0.191967
      7 F02          2.1060     1.1560     6.2680 f          1 2O8      -0.191967
      8 F            3.4510     0.0150     7.7180 f          1 2O8      -0.191967
      9 C04          2.8930     0.0120     6.4350 c3         1 2O8       0.681000
     10 C05          4.0350    -0.0070     2.4670 ca         1 2O8      -0.122000
     11 S            4.2190     0.0030     5.1980 ss         1 2O8      -0.113000
     12 C06          1.2560     0.0040     2.4890 ca         1 2O8      -0.044000
     13 C07          1.9540     0.0020     1.2770 ca         1 2O8      -0.231600
     14 C            3.3520    -0.0080     1.2780 ca         1 2O8      -0.044000
     15 H1           1.4040     0.0090     4.6130 ha         1 2O8       0.175000
     16 H2           2.4620    -0.8210    -1.2210 hn         1 2O8       0.478133
     17 H3           2.4680     0.8140    -1.2190 hn         1 2O8       0.478133
     18 H4           5.1180    -0.0120     2.4680 ha         1 2O8       0.175000
     19 H5           0.1730     0.0080     2.4910 ha         1 2O8       0.145500
     20 H6           3.8950    -0.0130     0.3410 ha         1 2O8       0.145500
     21 HN3          1.2390     0.0020    -1.9280 hn         1 2O8       0.478133
@<TRIPOS>BOND
     1     7     9 1   
     2     6     9 1   
     3     9     8 1   
     4     9    11 1   
     5    11     3 1   
     6     3    10 ar  
     7     3     2 ar  
     8    10    14 ar  
     9     2    12 ar  
    10    14    13 ar  
    11    12    13 ar  
    12    13     5 1   
    13     5     1 2   
    14     5     4 1   
    15     2    15 1   
    16     4    16 1   
    17     4    17 1   
    18    10    18 1   
    19    12    19 1   
    20    14    20 1   
    21    21     4 1   
@<TRIPOS>SUBSTRUCTURE
     1 2O8         1 TEMP              0 ****  ****    0 ROOT
