@<TRIPOS>MOLECULE
2O8
   21    21     1     0     0
SMALL
bcc


@<TRIPOS>ATOM
      1 O            0.0000     0.0000     0.0000 o          1 2O8      -0.427100
      2 C01          1.9440     0.0060     3.6740 ca         1 2O8      -0.089500
      3 C02          3.3380     0.0000     3.6730 ca         1 2O8       0.119900
      4 N            1.8900    -0.0010    -1.1670 nz         1 2O8       0.200600
      5 C03          1.2160     0.0000     0.0000 c          1 2O8       0.356700
      6 F01          2.0980    -1.1290     6.2760 f          1 2O8      -0.180967
      7 F02          2.1060     1.1560     6.2680 f          1 2O8      -0.180967
      8 F            3.4510     0.0150     7.7180 f          1 2O8      -0.180967
      9 C04          2.8930     0.0120     6.4350 c3         1 2O8       0.676000
     10 C05          4.0350    -0.0070     2.4670 ca         1 2O8      -0.089500
     11 S            4.2190     0.0030     5.1980 ss         1 2O8      -0.199000
     12 C06          1.2560     0.0040     2.4890 ca         1 2O8      -0.006500
     13 C07          1.9540     0.0020     1.2770 ca         1 2O8      -0.250600
     14 C            3.3520    -0.0080     1.2780 ca         1 2O8      -0.006500
     15 H1           1.4040     0.0090     4.6130 ha         1 2O8       0.146000
     16 H2           2.4620    -0.8210    -1.2210 hn         1 2O8       0.247467
     17 H3           2.4680     0.8140    -1.2190 hn         1 2O8       0.247467
     18 H4           5.1180    -0.0120     2.4680 ha         1 2O8       0.146000
     19 H5           0.1730     0.0080     2.4910 ha         1 2O8       0.112500
     20 H6           3.8950    -0.0130     0.3410 ha         1 2O8       0.112500
     21 HN3          1.2390     0.0020    -1.9280 hn         1 2O8       0.247467
@<TRIPOS>BOND
     1     1     5 2   
     2     2     3 ar  
     3     2    12 ar  
     4     2    15 1   
     5     3    10 ar  
     6     3    11 1   
     7     4     5 1   
     8     4    16 1   
     9     4    17 1   
    10     4    21 1   
    11     5    13 1   
    12     6     9 1   
    13     7     9 1   
    14     8     9 1   
    15     9    11 1   
    16    10    14 ar  
    17    10    18 1   
    18    12    13 ar  
    19    12    19 1   
    20    13    14 ar  
    21    14    20 1   
@<TRIPOS>SUBSTRUCTURE
     1 2O8         1 TEMP              0 ****  ****    0 ROOT
