@<TRIPOS>MOLECULE
molecule
   42    44     1     0     0
SMALL
bcc


@<TRIPOS>ATOM
      1 PG           0.0000     0.0000     0.0000 p5         1 2OA       1.334900
      2 O1G          1.4800     0.0000     0.0000 o          1 2OA      -0.825167
      3 O2G         -0.5370     0.0000     1.5180 o          1 2OA      -0.825167
      4 O3G         -0.5360     1.3140    -0.7600 o          1 2OA      -0.825167
      5 PB          -0.1370    -2.8740    -0.7130 p5         1 2OA       1.517800
      6 O1B          1.3350    -3.0030    -0.6250 o          1 2OA      -0.872500
      7 O2B         -0.8140    -3.5640     0.5740 o          1 2OA      -0.872500
      8 O3B         -0.5360    -1.3150    -0.7590 os         1 2OA      -0.734800
      9 PA          -0.3410    -5.0150    -2.7530 p5         1 2OA       1.443800
     10 O1A         -0.3370    -6.0840    -1.7300 o          1 2OA      -0.854500
     11 O2A          1.1030    -4.9470    -3.4630 o          1 2OA      -0.854500
     12 O3A         -0.6600    -3.6020    -2.0500 os         1 2OA      -0.724800
     13 O5'         -1.4690    -5.3320    -3.8580 os         1 2OA      -0.587200
     14 C5'         -1.5230    -6.5620    -4.5820 c3         1 2OA       0.242400
     15 C4'         -2.7120    -6.5330    -5.5460 c3         1 2OA       0.134100
     16 O4'         -2.5070    -5.5430    -6.5750 os         1 2OA      -0.367600
     17 C3'         -2.8040    -7.8640    -6.3370 c3         1 2OA       0.097100
     18 O3'         -3.5480    -8.8410    -5.6060 oh         1 2OA      -0.595800
     19 C2'         -3.5670    -7.4290    -7.6130 c3         1 2OA      -0.161400
     20 C1'         -3.3520    -5.9040    -7.6800 c3         1 2OA       0.256800
     21 N9          -2.7000    -5.5500    -8.9440 na         1 2OA      -0.255000
     22 C8          -1.3610    -5.3930    -9.1440 cc         1 2OA       0.405700
     23 N7          -1.1310    -5.0770   -10.3850 nd         1 2OA      -0.616100
     24 C5          -2.3050    -5.0100   -11.0580 ca         1 2OA      -0.161200
     25 C6          -2.6690    -4.7240   -12.3850 ca         1 2OA       0.623200
     26 N6          -1.7080    -4.4190   -13.3330 nv         1 2OA      -1.060500
     27 N1          -3.9580    -4.7520   -12.7090 nb         1 2OA      -0.783000
     28 C2          -4.8820    -5.0420   -11.8110 ca         1 2OA       0.600900
     29 N3          -4.5880    -5.3170   -10.5580 nb         1 2OA      -0.811000
     30 C4          -3.3260    -5.3200   -10.1420 ca         1 2OA       0.452800
     31 H5'1        -1.6420    -7.3850    -3.8870 h1         1 2OA       0.030200
     32 H5'2        -0.6060    -6.6920    -5.1430 h1         1 2OA       0.030200
     33 H4'         -3.6370    -6.3430    -5.0150 h1         1 2OA       0.071700
     34 H3'         -1.8160    -8.2300    -6.5880 h1         1 2OA       0.049700
     35 HO3'        -3.2070    -9.7000    -5.7930 ho         1 2OA       0.383000
     36 H2'1        -4.6220    -7.6580    -7.5180 hc         1 2OA       0.053700
     37 H2'2        -3.1450    -7.9090    -8.4870 hc         1 2OA       0.053700
     38 H1'         -4.3050    -5.3950    -7.5950 h2         1 2OA       0.076700
     39 H8          -0.6000    -5.5130    -8.3820 h5         1 2OA       0.098800
     40 HN61        -1.4400    -3.4670   -13.4850 hn         1 2OA       0.407300
     41 HN62        -1.3030    -5.1480   -13.8870 hn         1 2OA       0.407300
     42 H2          -5.9220    -5.0530   -12.1170 h5         1 2OA       0.016100
@<TRIPOS>BOND
     1     1     2 1
     2     1     3 1
     3     1     4 1
     4     1     8 1
     5     5     6 1
     6     5     7 1
     7     5     8 1
     8     5    12 1
     9     9    10 1
    10     9    11 1
    11     9    12 1
    12     9    13 1
    13    13    14 1
    14    14    15 1
    15    14    31 1
    16    14    32 1
    17    15    16 1
    18    15    17 1
    19    15    33 1
    20    16    20 1
    21    17    18 1
    22    17    19 1
    23    17    34 1
    24    18    35 1
    25    19    20 1
    26    19    36 1
    27    19    37 1
    28    20    21 1
    29    20    38 1
    30    21    22 1
    31    21    30 1
    32    22    23 2
    33    22    39 1
    34    23    24 1
    35    24    25 ar
    36    24    30 ar
    37    25    26 1
    38    25    27 ar
    39    26    40 1
    40    26    41 1
    41    27    28 ar
    42    28    29 ar
    43    28    42 1
    44    29    30 ar
@<TRIPOS>SUBSTRUCTURE
     1 2OA         1 TEMP              0 ****  ****    0 ROOT
