@<TRIPOS>MOLECULE
2OD
   52    55     1     0     0
SMALL
bcc


@<TRIPOS>ATOM
      1 N1           0.0000     0.0000     0.0000 n3         1 2OD      -0.543600
      2 N3          -4.8550     8.1590    -5.5740 nz         1 2OD       0.287400
      3 C4          -5.9680     4.9980    -3.9770 ca         1 2OD      -0.037300
      4 C5          -4.5870     5.1040    -3.7750 ca         1 2OD      -0.024600
      5 C6          -3.9290     4.0900    -3.0720 ca         1 2OD      -0.075000
      6 C7          -4.6380     3.0070    -2.5900 ca         1 2OD       0.123100
      7 C8          -2.5830     2.1770    -1.7280 c3         1 2OD       0.198400
      8 C10         -0.5270     1.1470    -0.7520 c3         1 2OD       0.161800
      9 C13          1.9310     0.0000     1.4750 c3         1 2OD      -0.034900
     10 C15         -5.0350     6.9650    -4.9280 c2         1 2OD      -0.046800
     11 C17         -7.5080     7.0480    -4.2180 cy         1 2OD      -0.019400
     12 C16         -6.3370     6.2280    -4.7570 cy         1 2OD      -0.066000
     13 C19         -7.1490     5.9980    -6.0310 cy         1 2OD      -0.019400
     14 C18         -8.4030     6.2330    -5.1690 cy         1 2OD      -0.028400
     15 C3          -6.6710     3.9200    -3.4960 ca         1 2OD      -0.177000
     16 N2          -4.1160     6.2580    -4.3410 ne         1 2OD      -0.230100
     17 C2          -6.0130     2.9170    -2.7980 ca         1 2OD       0.215100
     18 O1          -6.7070     1.8490    -2.3210 os         1 2OD      -0.263900
     19 C1          -8.1130     1.8230    -2.5760 c3         1 2OD       0.239700
     20 O2          -3.9920     2.0240    -1.9070 os         1 2OD      -0.273900
     21 C9          -2.0350     0.9830    -0.9440 c3         1 2OD      -0.040400
     22 C14          1.4750     0.0000     0.0000 c3         1 2OD       0.150300
     23 C12          0.6980    -0.5720     2.2220 c3         1 2OD      -0.034900
     24 C11         -0.4710     0.0260     1.4010 c3         1 2OD       0.150300
     25 H2          -3.8840     8.4030    -5.5590 hn         1 2OD       0.198800
     26 H3          -5.1630     8.0750    -6.5220 hn         1 2OD       0.198800
     27 H4          -2.8600     4.1530    -2.9060 ha         1 2OD       0.142000
     28 H5          -2.3850     3.0900    -1.1800 h1         1 2OD       0.001700
     29 H6          -2.0990     2.2250    -2.6970 h1         1 2OD       0.001700
     30 H7          -0.0430     1.1970    -1.7200 h1         1 2OD       0.006700
     31 H8          -0.3300     2.0600    -0.2030 h1         1 2OD       0.006700
     32 H9           2.7910    -0.6450     1.6080 hc         1 2OD       0.023950
     33 H10          2.1450     1.0080     1.8080 hc         1 2OD       0.023950
     34 H11         -7.4500     8.0960    -4.4840 hc         1 2OD       0.035450
     35 H12         -7.7140     6.8560    -3.1720 hc         1 2OD       0.035450
     36 H13         -7.0740     4.9840    -6.4040 hc         1 2OD       0.035450
     37 H14         -6.9960     6.7690    -6.7760 hc         1 2OD       0.035450
     38 H15         -9.1520     6.8370    -5.6670 hc         1 2OD       0.043700
     39 H16         -8.7830     5.3240    -4.7180 hc         1 2OD       0.043700
     40 H17         -7.7400     3.8530    -3.6600 ha         1 2OD       0.143000
     41 H18         -8.5410     0.9260    -2.1460 h1         1 2OD       0.008367
     42 H19         -8.5760     2.6940    -2.1290 h1         1 2OD       0.008367
     43 H20         -8.2860     1.8300    -3.6450 h1         1 2OD       0.008367
     44 H21         -2.5190     0.9340     0.0240 hc         1 2OD       0.038700
     45 H22         -2.2320     0.0700    -1.4930 hc         1 2OD       0.038700
     46 H23          1.8420    -0.8890    -0.4990 h1         1 2OD       0.015700
     47 H24          1.8420     0.8890    -0.4990 h1         1 2OD       0.015700
     48 H25          0.6870    -1.6550     2.1760 hc         1 2OD       0.023950
     49 H26          0.6700    -0.2200     3.2460 hc         1 2OD       0.023950
     50 H27         -1.3590    -0.5860     1.5110 h1         1 2OD       0.015700
     51 H28         -0.6670     1.0450     1.7130 h1         1 2OD       0.015700
     52 H33         -5.3940     8.8690    -5.1200 hn         1 2OD       0.198800
@<TRIPOS>BOND
     1     1     8 1   
     2     1    22 1   
     3     1    24 1   
     4     2    10 1   
     5     2    25 1   
     6     2    26 1   
     7     2    52 1   
     8     3     4 ar  
     9     3    12 1   
    10     3    15 ar  
    11     4     5 ar  
    12     4    16 1   
    13     5     6 ar  
    14     5    27 1   
    15     6    17 ar  
    16     6    20 1   
    17     7    20 1   
    18     7    21 1   
    19     7    28 1   
    20     7    29 1   
    21     8    21 1   
    22     8    30 1   
    23     8    31 1   
    24     9    22 1   
    25     9    23 1   
    26     9    32 1   
    27     9    33 1   
    28    10    12 1   
    29    10    16 2   
    30    11    12 1   
    31    11    14 1   
    32    11    34 1   
    33    11    35 1   
    34    12    13 1   
    35    13    14 1   
    36    13    36 1   
    37    13    37 1   
    38    14    38 1   
    39    14    39 1   
    40    15    17 ar  
    41    15    40 1   
    42    17    18 1   
    43    18    19 1   
    44    19    41 1   
    45    19    42 1   
    46    19    43 1   
    47    21    44 1   
    48    21    45 1   
    49    22    46 1   
    50    22    47 1   
    51    23    24 1   
    52    23    48 1   
    53    23    49 1   
    54    24    50 1   
    55    24    51 1   
@<TRIPOS>SUBSTRUCTURE
     1 2OD         1 TEMP              0 ****  ****    0 ROOT
