@<TRIPOS>MOLECULE
molecule
   36    38     1     0     0
SMALL
bcc


@<TRIPOS>ATOM
      1 CAL          0.0000     0.0000     0.0000 ca         1 2OE      -0.174000
      2 CAQ          1.3860     0.0000     0.0000 ca         1 2OE       0.117100
      3 OAB          2.0660     0.0010    -1.1770 oh         1 2OE      -0.519100
      4 CAG          2.0790     0.0000     1.2020 ca         1 2OE      -0.157000
      5 CAF          1.3880    -0.0010     2.3990 ca         1 2OE      -0.105000
      6 CAH          0.0080    -0.0010     2.4020 ca         1 2OE      -0.140000
      7 CAR         -0.6900    -0.0010     1.2030 ca         1 2OE       0.112100
      8 OAO         -2.0500     0.0050     1.2060 os         1 2OE      -0.241200
      9 CAS         -2.6930    -1.0990     0.7480 ca         1 2OE       0.171100
     10 CAM         -4.0760    -1.1090     0.6020 ca         1 2OE      -0.279300
     11 CAK         -1.9820    -2.2490     0.4070 ca         1 2OE      -0.336300
     12 CAP         -2.6670    -3.3540    -0.0570 ca         1 2OE       0.467600
     13 CAA         -1.9050    -4.5990    -0.4270 c3         1 2OE      -0.142400
     14 NAN         -3.9800    -3.3360    -0.1790 nb         1 2OE      -0.719000
     15 CAU         -4.6950    -2.2610     0.1290 cp         1 2OE       0.519800
     16 CAT         -6.1700    -2.2880    -0.0330 cp         1 2OE      -0.150500
     17 CAI         -6.9300    -1.1630     0.2830 ca         1 2OE      -0.097500
     18 CAD         -8.3000    -1.1940     0.1310 ca         1 2OE      -0.137000
     19 CAC         -8.9220    -2.3400    -0.3340 ca         1 2OE      -0.117000
     20 CAE         -8.1740    -3.4590    -0.6480 ca         1 2OE      -0.137000
     21 CAJ         -6.8010    -3.4370    -0.5050 ca         1 2OE      -0.097500
     22 H1          -0.5430     0.0010    -0.9380 ha         1 2OE       0.157000
     23 H2           2.2440     0.8900    -1.4360 ho         1 2OE       0.423000
     24 H3           3.1630     0.0000     1.2020 ha         1 2OE       0.144000
     25 H4           1.9310    -0.0010     3.3370 ha         1 2OE       0.141000
     26 H5          -0.5310    -0.0020     3.3420 ha         1 2OE       0.148000
     27 H6          -4.6620    -0.2330     0.8520 ha         1 2OE       0.153000
     28 H7          -0.9300    -2.3280     0.6530 ha         1 2OE       0.153000
     29 H8          -2.6020    -5.3840    -0.6930 hc         1 2OE       0.054367
     30 H9          -1.2590    -4.3890    -1.2710 hc         1 2OE       0.054367
     31 H10         -1.3050    -4.9190     0.4160 hc         1 2OE       0.054367
     32 H11         -6.4440    -0.2660     0.6470 ha         1 2OE       0.144000
     33 H12         -8.8910    -0.3200     0.3760 ha         1 2OE       0.131500
     34 H13         -9.9990    -2.3600    -0.4490 ha         1 2OE       0.129000
     35 H14         -8.6650    -4.3530    -1.0140 ha         1 2OE       0.131500
     36 H15         -6.2160    -4.3140    -0.7520 ha         1 2OE       0.144000
@<TRIPOS>BOND
     1     3     2 1
     2     2     4 ar
     3     2     1 ar
     4     4     5 ar
     5     1     7 ar
     6     5     6 ar
     7     7     6 ar
     8     7     8 1
     9     8     9 1
    10     9    11 ar
    11     9    10 ar
    12    11    12 ar
    13    13    12 1
    14    10    15 ar
    15    12    14 ar
    16    14    15 ar
    17    15    16 1
    18    17    16 ar
    19    17    18 ar
    20    16    21 ar
    21    18    19 ar
    22    21    20 ar
    23    19    20 ar
    24     1    22 1
    25     3    23 1
    26     4    24 1
    27     5    25 1
    28     6    26 1
    29    10    27 1
    30    11    28 1
    31    13    29 1
    32    13    30 1
    33    13    31 1
    34    17    32 1
    35    18    33 1
    36    19    34 1
    37    20    35 1
    38    21    36 1
@<TRIPOS>SUBSTRUCTURE
     1 2OE         1 TEMP              0 ****  ****    0 ROOT
