@<TRIPOS>MOLECULE
2OE
   36    38     1     0     0
SMALL
bcc


@<TRIPOS>ATOM
      1 CAL        -0.1300   -0.1540    0.2630 ca        1 2OE     -0.198000
      2 CAQ         1.2140    0.2380    0.1580 ca        1 2OE      0.145100
      3 OAB         1.7160    0.3440   -1.1190 oh        1 2OE     -0.494100
      4 CAG         1.9860    0.5020    1.2990 ca        1 2OE     -0.228000
      5 CAF         1.4070    0.3700    2.5590 ca        1 2OE     -0.073000
      6 CAH         0.0790   -0.0260    2.6980 ca        1 2OE     -0.171000
      7 CAR        -0.6760   -0.2800    1.5420 ca        1 2OE      0.133100
      8 OAO        -2.0250   -0.5520    1.7540 os        1 2OE     -0.245200
      9 CAS        -2.6160   -1.5130    0.9460 ca        1 2OE      0.149100
     10 CAM        -4.0090   -1.4110    0.8090 ca        1 2OE     -0.262300
     11 CAK        -1.9290   -2.5780    0.3570 ca        1 2OE     -0.302300
     12 CAP        -2.6800   -3.5320   -0.3650 ca        1 2OE      0.442600
     13 CAA        -1.9550   -4.6770   -1.0000 c3        1 2OE     -0.150400
     14 NAN        -4.0240   -3.4570   -0.5080 nb        1 2OE     -0.680000
     15 CAU        -4.6720   -2.4130    0.0690 cp        1 2OE      0.489800
     16 CAT        -6.1370   -2.3160   -0.0830 cp        1 2OE     -0.149500
     17 CAI        -6.7290   -1.0650   -0.3060 ca        1 2OE     -0.101000
     18 CAD        -8.1120   -0.9610   -0.4380 ca        1 2OE     -0.137000
     19 CAC        -8.9130   -2.1000   -0.3490 ca        1 2OE     -0.119000
     20 CAE        -8.3260   -3.3460   -0.1330 ca        1 2OE     -0.137000
     21 CAJ        -6.9420   -3.4590   -0.0030 ca        1 2OE     -0.101000
     22 H1         -0.7250   -0.3520   -0.6400 ha        1 2OE      0.167000
     23 H2          2.6350    0.6420   -1.0540 ho        1 2OE      0.422000
     24 H3          3.0350    0.8100    1.1980 ha        1 2OE      0.138000
     25 H4          2.0080    0.5770    3.4580 ha        1 2OE      0.139000
     26 H5         -0.3870   -0.1290    3.6880 ha        1 2OE      0.154000
     27 H6         -4.5600   -0.5870    1.2800 ha        1 2OE      0.163000
     28 H7         -0.8390   -2.6730    0.4520 ha        1 2OE      0.158000
     29 H8         -2.0960   -4.6570   -2.1090 hc        1 2OE      0.055367
     30 H9         -0.8630   -4.6160   -0.7760 hc        1 2OE      0.055367
     31 H10        -2.3480   -5.6500   -0.6130 hc        1 2OE      0.055367
     32 H11        -6.1000   -0.1660   -0.3870 ha        1 2OE      0.142000
     33 H12        -8.5710    0.0230   -0.6140 ha        1 2OE      0.133000
     34 H13       -10.0040   -2.0140   -0.4520 ha        1 2OE      0.132000
     35 H14        -8.9550   -4.2460   -0.0660 ha        1 2OE      0.133000
     36 H15        -6.4850   -4.4470    0.1590 ha        1 2OE      0.142000
@<TRIPOS>BOND
     1    1    2 ar  
     2    1    7 ar  
     3    1   22 1   
     4    2    3 1   
     5    2    4 ar  
     6    3   23 1   
     7    4    5 ar  
     8    4   24 1   
     9    5    6 ar  
    10    5   25 1   
    11    6    7 ar  
    12    6   26 1   
    13    7    8 1   
    14    8    9 1   
    15    9   10 ar  
    16    9   11 ar  
    17   10   15 ar  
    18   10   27 1   
    19   11   12 ar  
    20   11   28 1   
    21   12   13 1   
    22   12   14 ar  
    23   13   29 1   
    24   13   30 1   
    25   13   31 1   
    26   14   15 ar  
    27   15   16 1   
    28   16   17 ar  
    29   16   21 ar  
    30   17   18 ar  
    31   17   32 1   
    32   18   19 ar  
    33   18   33 1   
    34   19   20 ar  
    35   19   34 1   
    36   20   21 ar  
    37   20   35 1   
    38   21   36 1   
@<TRIPOS>SUBSTRUCTURE
     1 2OE         1 TEMP              0 ****  ****    0 ROOT
