@<TRIPOS>MOLECULE
molecule
   14    13     1     0     0
SMALL
bcc


@<TRIPOS>ATOM
      1 C1           0.0000     0.0000     0.0000 c          1 2OG       0.801600
      2 C2           1.4900     0.0000     0.0000 c          1 2OG       0.467100
      3 C3           2.2440     0.0000     1.3040 c3         1 2OG      -0.162400
      4 C4           3.7470    -0.0000     1.0250 c3         1 2OG      -0.173400
      5 C5           4.5010    -0.0000     2.3290 c          1 2OG       0.889600
      6 O1          -0.6060     0.0000     1.0510 o          1 2OG      -0.842300
      7 O2          -0.6730     0.0000    -1.1650 o          1 2OG      -0.842300
      8 O2'          2.0930    -0.0000    -1.0460 o          1 2OG      -0.572100
      9 O3           3.8970     0.0000     3.3750 o          1 2OG      -0.878800
     10 O4           5.8430    -0.0000     2.3290 o          1 2OG      -0.878800
     11 H31          1.9820     0.8840     1.8720 hc         1 2OG       0.065700
     12 H32          1.9820    -0.8840     1.8720 hc         1 2OG       0.065700
     13 H41          4.0080     0.8840     0.4570 hc         1 2OG       0.031700
     14 H42          4.0080    -0.8840     0.4570 hc         1 2OG       0.031700
@<TRIPOS>BOND
     1     1     2 1   
     2     1     6 1   
     3     1     7 1   
     4     2     3 1   
     5     2     8 2   
     6     3     4 1   
     7     3    11 1   
     8     3    12 1   
     9     4     5 1   
    10     4    13 1   
    11     4    14 1   
    12     5     9 1   
    13     5    10 1   
@<TRIPOS>SUBSTRUCTURE
     1 2OG         1 TEMP              0 ****  ****    0 ROOT
