@<TRIPOS>MOLECULE
2OG
   14    13     1     0     0
SMALL
bcc


@<TRIPOS>ATOM
      1 C1         -0.0300    0.0190    0.0420 c         1 2OG      0.842600
      2 C2          1.4560    0.3960    0.0280 c         1 2OG      0.476100
      3 C3          2.2640   -0.0900    1.1990 c3        1 2OG     -0.166400
      4 C4          3.7570    0.0570    1.0320 c3        1 2OG     -0.173400
      5 C5          4.5420   -0.2570    2.3090 c         1 2OG      0.902600
      6 O1         -0.8510    0.8390    0.5430 o         1 2OG     -0.845300
      7 O2         -0.3640   -1.0980   -0.4480 o         1 2OG     -0.845300
      8 O2'         1.9480    1.0630   -0.8960 o         1 2OG     -0.619100
      9 O3          4.2040    0.2820    3.4060 o         1 2OG     -0.875800
     10 O4          5.5490   -1.0270    2.2200 o         1 2OG     -0.875800
     11 H31         1.9350    0.4830    2.1080 hc        1 2OG      0.065700
     12 H32         2.0010   -1.1670    1.3730 hc        1 2OG      0.065700
     13 H41         3.9920    1.1110    0.7340 hc        1 2OG      0.024200
     14 H42         4.1130   -0.6120    0.2090 hc        1 2OG      0.024200
@<TRIPOS>BOND
     1    1    2 1   
     2    1    6 1   
     3    1    7 1   
     4    2    3 1   
     5    2    8 2   
     6    3    4 1   
     7    3   11 1   
     8    3   12 1   
     9    4    5 1   
    10    4   13 1   
    11    4   14 1   
    12    5    9 1   
    13    5   10 1   
@<TRIPOS>SUBSTRUCTURE
     1 2OG         1 TEMP              0 ****  ****    0 ROOT
