@<TRIPOS>MOLECULE
molecule
   33    34     1     0     0
SMALL
bcc


@<TRIPOS>ATOM
      1 O2           0.0000     0.0000     0.0000 oh         1 2OH      -0.522100
      2 C13          1.3610     0.0000     0.0000 ca         1 2OH       0.097600
      3 C12          2.0580     0.0000     1.2090 ca         1 2OH      -0.150750
      4 C11          3.4530    -0.0010     1.2080 ca         1 2OH      -0.109750
      5 C14          2.0590    -0.0010    -1.2080 ca         1 2OH      -0.150750
      6 C15          3.4530    -0.0030    -1.2070 ca         1 2OH      -0.109750
      7 C4           4.1510    -0.0030     0.0010 ca         1 2OH      -0.075300
      8 C2           5.6420    -0.0050     0.0010 c3         1 2OH       0.009600
      9 C3           6.3210    -0.0100    -1.4250 c3         1 2OH      -0.082100
     10 C5           6.1630    -1.3360     0.6580 c3         1 2OH      -0.082100
     11 C1           6.2490     1.2570     0.7310 ca         1 2OH      -0.075300
     12 C10          5.9260     2.4690     0.2210 ca         1 2OH      -0.109750
     13 C9           6.4630     3.5840     0.8650 ca         1 2OH      -0.150750
     14 C6           7.0400     1.0200     1.8020 ca         1 2OH      -0.109750
     15 C7           7.5770     2.1360     2.4460 ca         1 2OH      -0.150750
     16 C8           7.2880     3.4170     1.9770 ca         1 2OH       0.097600
     17 O1           7.8140     4.5060     2.6040 oh         1 2OH      -0.522100
     18 HO2         -0.3140     0.8890    -0.0010 ho         1 2OH       0.417500
     19 H12          1.5160     0.0010     2.1470 ha         1 2OH       0.139500
     20 H11          3.9940    -0.0010     2.1470 ha         1 2OH       0.142250
     21 H14          1.5170    -0.0010    -2.1460 ha         1 2OH       0.139500
     22 H15          3.9950    -0.0040    -2.1450 ha         1 2OH       0.142250
     23 H31          6.0790    -0.9330    -1.9370 hc         1 2OH       0.038867
     24 H32          7.3960     0.0700    -1.3140 hc         1 2OH       0.038867
     25 H33          5.9540     0.8300    -2.0020 hc         1 2OH       0.038867
     26 H51          5.8730    -1.3620     1.7010 hc         1 2OH       0.038867
     27 H52          5.7320    -2.1860     0.1420 hc         1 2OH       0.038867
     28 H53          7.2430    -1.3780     0.5820 hc         1 2OH       0.038867
     29 H10          5.2830     2.5670    -0.6450 ha         1 2OH       0.142250
     30 H9           6.2390     4.5800     0.5010 ha         1 2OH       0.139500
     31 H6           7.2470     0.0130     2.1430 ha         1 2OH       0.142250
     32 H7           8.2180     2.0070     3.3100 ha         1 2OH       0.139500
     33 HO1          7.2240     4.7930     3.2820 ho         1 2OH       0.417500
@<TRIPOS>BOND
     1     1     2 1   
     2     1    18 1   
     3     2     3 ar  
     4     2     5 ar  
     5     3     4 ar  
     6     3    19 1   
     7     4     7 ar  
     8     4    20 1   
     9     5     6 ar  
    10     5    21 1   
    11     6     7 ar  
    12     6    22 1   
    13     7     8 1   
    14     8    11 1   
    15     8     9 1   
    16     8    10 1   
    17     9    23 1   
    18     9    24 1   
    19     9    25 1   
    20    10    26 1   
    21    10    27 1   
    22    10    28 1   
    23    11    12 ar  
    24    11    14 ar  
    25    12    13 ar  
    26    12    29 1   
    27    13    16 ar  
    28    13    30 1   
    29    14    15 ar  
    30    14    31 1   
    31    15    16 ar  
    32    15    32 1   
    33    16    17 1   
    34    17    33 1   
@<TRIPOS>SUBSTRUCTURE
     1 2OH         1 TEMP              0 ****  ****    0 ROOT
