@<TRIPOS>MOLECULE
2OH
   33    34     1     0     0
SMALL
bcc


@<TRIPOS>ATOM
      1 O2          0.0240   -0.0570    0.1150 oh        1 2OH     -0.498100
      2 C13         1.3980   -0.0570    0.0220 ca        1 2OH      0.121100
      3 C12         2.1100    0.0820    1.2250 ca        1 2OH     -0.185500
      4 C11         3.4980    0.0870    1.1880 ca        1 2OH     -0.089500
      5 C14         2.0750   -0.1860   -1.1960 ca        1 2OH     -0.185500
      6 C15         3.4700   -0.1780   -1.2090 ca        1 2OH     -0.089500
      7 C4          4.1970   -0.0420   -0.0240 ca        1 2OH     -0.107300
      8 C2          5.7060   -0.0590    0.0100 c3        1 2OH      0.049600
      9 C3          6.3180   -0.0400   -1.3910 c3        1 2OH     -0.086100
     10 C5          6.1400   -1.3590    0.6870 c3        1 2OH     -0.086100
     11 C1          6.2060    1.1630    0.7440 ca        1 2OH     -0.107300
     12 C10         5.7690    2.4290    0.3190 ca        1 2OH     -0.089500
     13 C9          6.2130    3.5900    0.9360 ca        1 2OH     -0.185500
     14 C6          7.1050    1.0840    1.8100 ca        1 2OH     -0.089500
     15 C7          7.5640    2.2370    2.4450 ca        1 2OH     -0.185500
     16 C8          7.1180    3.4890    2.0060 ca        1 2OH      0.121100
     17 O1          7.5270    4.6710    2.5810 oh        1 2OH     -0.498100
     18 HO2        -0.3350   -0.1550   -0.7780 ho        1 2OH      0.418000
     19 H12         1.5620    0.1850    2.1720 ha        1 2OH      0.141000
     20 H11         4.0640    0.2020    2.1260 ha        1 2OH      0.137500
     21 H14         1.5150   -0.2940   -2.1350 ha        1 2OH      0.141000
     22 H15         3.9840   -0.2840   -2.1770 ha        1 2OH      0.137500
     23 H31         7.4310    0.0120   -1.3130 hc        1 2OH      0.039700
     24 H32         6.0460   -0.9680   -1.9480 hc        1 2OH      0.039700
     25 H33         5.9610    0.8500   -1.9640 hc        1 2OH      0.039700
     26 H51         5.7920   -1.3860    1.7460 hc        1 2OH      0.039700
     27 H52         5.6960   -2.2290    0.1450 hc        1 2OH      0.039700
     28 H53         7.2520   -1.4590    0.6630 hc        1 2OH      0.039700
     29 H10         5.0540    2.4990   -0.5170 ha        1 2OH      0.137500
     30 H9          5.8710    4.5810    0.6060 ha        1 2OH      0.141000
     31 H6          7.4700    0.1090    2.1690 ha        1 2OH      0.137500
     32 H7          8.2720    2.1620    3.2830 ha        1 2OH      0.141000
     33 HO1         8.1390    4.4560    3.3000 ho        1 2OH      0.418000
@<TRIPOS>BOND
     1    1    2 1   
     2    1   18 1   
     3    2    3 ar  
     4    2    5 ar  
     5    3    4 ar  
     6    3   19 1   
     7    4    7 ar  
     8    4   20 1   
     9    5    6 ar  
    10    5   21 1   
    11    6    7 ar  
    12    6   22 1   
    13    7    8 1   
    14    8    9 1   
    15    8   10 1   
    16    8   11 1   
    17    9   23 1   
    18    9   24 1   
    19    9   25 1   
    20   10   26 1   
    21   10   27 1   
    22   10   28 1   
    23   11   12 ar  
    24   11   14 ar  
    25   12   13 ar  
    26   12   29 1   
    27   13   16 ar  
    28   13   30 1   
    29   14   15 ar  
    30   14   31 1   
    31   15   16 ar  
    32   15   32 1   
    33   16   17 1   
    34   17   33 1   
@<TRIPOS>SUBSTRUCTURE
     1 2OH         1 TEMP              0 ****  ****    0 ROOT
