@<TRIPOS>MOLECULE
2OK
   46    48     1     0     0
SMALL
bcc


@<TRIPOS>ATOM
      1 CAB         0.2260   -0.9040   -0.2040 c3        1 2OK      0.111700
      2 OAP         1.6340   -0.8190   -0.0130 os        1 2OK     -0.324900
      3 CAU         2.0560   -0.4260    1.2410 ca        1 2OK      0.145100
      4 CAL         1.1930   -0.0920    2.2880 ca        1 2OK     -0.217000
      5 CAI         3.4540   -0.3740    1.4010 ca        1 2OK     -0.170000
      6 CAR         3.9940    0.0110    2.6280 ca        1 2OK     -0.026300
      7 CAC         5.4640    0.0530    2.8170 c3        1 2OK     -0.057800
      8 CAJ         3.1490    0.3450    3.6950 ca        1 2OK     -0.200000
      9 CAV         1.7660    0.2870    3.5110 ca        1 2OK      0.133100
     10 OAQ         0.8660    0.4880    4.5580 os        1 2OK     -0.247200
     11 CAW         1.0820    1.5890    5.3720 ca        1 2OK      0.153100
     12 CAM         0.4850    1.5260    6.6410 ca        1 2OK     -0.267300
     13 CAK         1.7770    2.7370    4.9800 ca        1 2OK     -0.307300
     14 CAS         1.8530    3.8090    5.8960 ca        1 2OK      0.442600
     15 CAD         2.5910    5.0440    5.4860 c3        1 2OK     -0.150400
     16 NAN         1.2830    3.7740    7.1230 nb        1 2OK     -0.685000
     17 CAY         0.6070    2.6530    7.4830 cp        1 2OK      0.497800
     18 CAX        -0.0260    2.6030    8.8140 cp        1 2OK     -0.186500
     19 CAG        -1.2810    1.9930    8.9640 ca        1 2OK     -0.067500
     20 CAE        -1.8900    1.9250   10.2090 ca        1 2OK     -0.188000
     21 CAT        -1.2350    2.4760   11.3270 ca        1 2OK      0.135100
     22 OAO        -1.9210    2.3520   12.5200 os        1 2OK     -0.326900
     23 CAA        -1.2970    2.9200   13.6650 c3        1 2OK      0.112700
     24 CAF         0.0130    3.0920   11.1900 ca        1 2OK     -0.188000
     25 CAH         0.6090    3.1560    9.9310 ca        1 2OK     -0.067500
     26 H1          0.1280   -1.2460   -1.2660 h1        1 2OK      0.046700
     27 H2         -0.2510    0.0970   -0.0670 h1        1 2OK      0.046700
     28 H3         -0.2230   -1.6510    0.4940 h1        1 2OK      0.046700
     29 H4          0.1010   -0.1290    2.1880 ha        1 2OK      0.156000
     30 H5          4.1020   -0.6390    0.5540 ha        1 2OK      0.153000
     31 H6          5.9950    0.1260    1.8360 hc        1 2OK      0.049700
     32 H7          5.8050   -0.8800    3.3330 hc        1 2OK      0.049700
     33 H8          5.7570    0.9280    3.4460 hc        1 2OK      0.049700
     34 H9          3.5660    0.6480    4.6650 ha        1 2OK      0.150000
     35 H10        -0.0540    0.6250    6.9610 ha        1 2OK      0.162000
     36 H11         2.2490    2.8040    3.9910 ha        1 2OK      0.158000
     37 H12         3.0440    4.9070    4.4740 hc        1 2OK      0.054700
     38 H13         3.4060    5.2750    6.2160 hc        1 2OK      0.054700
     39 H14         1.8930    5.9180    5.4510 hc        1 2OK      0.054700
     40 H15        -1.7950    1.5730    8.0860 ha        1 2OK      0.144000
     41 H16        -2.8740    1.4510   10.3370 ha        1 2OK      0.145000
     42 H17        -0.3180    2.4220   13.8690 h1        1 2OK      0.045033
     43 H18        -2.0250    2.7100   14.4890 h1        1 2OK      0.045033
     44 H19        -1.1570    4.0210   13.5340 h1        1 2OK      0.045033
     45 H20         0.5290    3.5290   12.0560 ha        1 2OK      0.145000
     46 H21         1.5880    3.6490    9.8220 ha        1 2OK      0.144000
@<TRIPOS>BOND
     1    1    2 1   
     2    1   26 1   
     3    1   27 1   
     4    1   28 1   
     5    2    3 1   
     6    3    4 ar  
     7    3    5 ar  
     8    4    9 ar  
     9    4   29 1   
    10    5    6 ar  
    11    5   30 1   
    12    6    7 1   
    13    6    8 ar  
    14    7   31 1   
    15    7   32 1   
    16    7   33 1   
    17    8    9 ar  
    18    8   34 1   
    19    9   10 1   
    20   10   11 1   
    21   11   12 ar  
    22   11   13 ar  
    23   12   17 ar  
    24   12   35 1   
    25   13   14 ar  
    26   13   36 1   
    27   14   15 1   
    28   14   16 ar  
    29   15   37 1   
    30   15   38 1   
    31   15   39 1   
    32   16   17 ar  
    33   17   18 1   
    34   18   19 ar  
    35   18   25 ar  
    36   19   20 ar  
    37   19   40 1   
    38   20   21 ar  
    39   20   41 1   
    40   21   22 1   
    41   21   24 ar  
    42   22   23 1   
    43   23   42 1   
    44   23   43 1   
    45   23   44 1   
    46   24   25 ar  
    47   24   45 1   
    48   25   46 1   
@<TRIPOS>SUBSTRUCTURE
     1 2OK         1 TEMP              0 ****  ****    0 ROOT
