@<TRIPOS>MOLECULE
molecule
   46    48     1     0     0
SMALL
bcc


@<TRIPOS>ATOM
      1 CAB          0.0000     0.0000     0.0000 c3         1 2OK       0.126700
      2 OAP          1.4290     0.0000     0.0000 os         1 2OK      -0.325900
      3 CAU          2.0460     0.0000     1.2110 ca         1 2OK       0.157100
      4 CAL          1.2910     0.0010     2.3740 ca         1 2OK      -0.233000
      5 CAI          3.4330    -0.0060     1.2850 ca         1 2OK      -0.164000
      6 CAR          4.0600    -0.0110     2.5150 ca         1 2OK      -0.036300
      7 CAC          5.5650    -0.0170     2.5930 c3         1 2OK      -0.047800
      8 CAJ          3.3090    -0.0100     3.6760 ca         1 2OK      -0.187000
      9 CAV          1.9240     0.0010     3.6080 ca         1 2OK       0.140100
     10 OAQ          1.1860     0.0030     4.7500 os         1 2OK      -0.242200
     11 CAW          1.2350     1.1070     5.5380 ca         1 2OK       0.176100
     12 CAM          0.6110     1.1230     6.7800 ca         1 2OK      -0.284300
     13 CAK          1.9150     2.2510     5.1230 ca         1 2OK      -0.340300
     14 CAS          1.9440     3.3560     5.9490 ca         1 2OK       0.466600
     15 CAD          2.6770     4.5950     5.5060 c3         1 2OK      -0.142400
     16 NAN          1.3380     3.3440     7.1210 nb         1 2OK      -0.724000
     17 CAY          0.6830     2.2750     7.5570 cp         1 2OK       0.527800
     18 CAX          0.0230     2.3080     8.8840 cp         1 2OK      -0.191500
     19 CAG         -0.6620     1.1890     9.3530 ca         1 2OK      -0.060000
     20 CAE         -1.2700     1.2210    10.5900 ca         1 2OK      -0.200000
     21 CAT         -1.1990     2.3680    11.3690 ca         1 2OK       0.153100
     22 OAO         -1.7990     2.3980    12.5870 os         1 2OK      -0.328900
     23 CAA         -1.6880     3.6090    13.3370 c3         1 2OK       0.128700
     24 CAF         -0.5180     3.4860    10.9060 ca         1 2OK      -0.200000
     25 CAH          0.0920     3.4590     9.6690 ca         1 2OK      -0.060000
     26 H1          -0.3610    -0.8780     0.5220 h1         1 2OK       0.043700
     27 H2          -0.3610     0.8910     0.4990 h1         1 2OK       0.043700
     28 H3          -0.3610    -0.0130    -1.0210 h1         1 2OK       0.043700
     29 H4           0.2090     0.0100     2.3190 ha         1 2OK       0.150000
     30 H5           4.0230    -0.0070     0.3770 ha         1 2OK       0.148000
     31 H6           5.8740    -0.2880     3.5950 hc         1 2OK       0.048033
     32 H7           5.9420     0.9700     2.3530 hc         1 2OK       0.048033
     33 H8           5.9600    -0.7360     1.8860 hc         1 2OK       0.048033
     34 H9           3.8040    -0.0120     4.6390 ha         1 2OK       0.147000
     35 H10          0.0760     0.2520     7.1370 ha         1 2OK       0.152000
     36 H11          2.2770     2.3270     4.1050 ha         1 2OK       0.153000
     37 H12          2.5340     5.3810     6.2380 hc         1 2OK       0.053033
     38 H13          3.7340     4.3760     5.4130 hc         1 2OK       0.053033
     39 H14          2.2900     4.9200     4.5470 hc         1 2OK       0.053033
     40 H15         -0.7170     0.2930     8.7450 ha         1 2OK       0.147000
     41 H16         -1.8020     0.3510    10.9550 ha         1 2OK       0.141000
     42 H17         -0.6430     3.8250    13.5220 h1         1 2OK       0.042367
     43 H18         -2.1310     4.4230    12.7750 h1         1 2OK       0.042367
     44 H19         -2.2070     3.4980    14.2810 h1         1 2OK       0.042367
     45 H20         -0.4650     4.3790    11.5160 ha         1 2OK       0.141000
     46 H21          0.6230     4.3310     9.3080 ha         1 2OK       0.147000
@<TRIPOS>BOND
     1     7     6 1   
     2     6     5 ar  
     3     6     8 ar  
     4    22    21 1   
     5    22    23 1   
     6     5     3 ar  
     7     8     9 ar  
     8    20    21 ar  
     9    20    19 ar  
    10    21    24 ar  
    11    19    18 ar  
    12    24    25 ar  
    13     3     4 ar  
    14     3     2 1   
    15     9     4 ar  
    16     9    10 1   
    17    18    25 ar  
    18    18    17 1   
    19    12    17 ar  
    20    12    11 ar  
    21     2     1 1   
    22    17    16 ar  
    23    10    11 1   
    24    11    13 ar  
    25    16    14 ar  
    26    13    14 ar  
    27    14    15 1   
    28     1    26 1   
    29     1    27 1   
    30     1    28 1   
    31     4    29 1   
    32     5    30 1   
    33     7    31 1   
    34     7    32 1   
    35     7    33 1   
    36     8    34 1   
    37    12    35 1   
    38    13    36 1   
    39    15    37 1   
    40    15    38 1   
    41    15    39 1   
    42    19    40 1   
    43    20    41 1   
    44    23    42 1   
    45    23    43 1   
    46    23    44 1   
    47    24    45 1   
    48    25    46 1   
@<TRIPOS>SUBSTRUCTURE
     1 2OK         1 TEMP              0 ****  ****    0 ROOT
