@<TRIPOS>MOLECULE
molecule
   56    59     1     0     0
SMALL
bcc


@<TRIPOS>ATOM
      1 C1           0.0000     0.0000     0.0000 c3         1 2OL       0.092700
      2 O2           1.4290     0.0000     0.0000 os         1 2OL      -0.482600
      3 C3           2.0110     0.0000     1.3040 c3         1 2OL       0.105400
      4 C4           3.5360     0.0010     1.1830 c3         1 2OL       0.265800
      5 N5           3.9760     1.2520     0.5640 nu         1 2OL      -0.864200
      6 C6           5.3190     1.4810     0.3490 cc         1 2OL       0.684700
      7 N7           6.2880     0.6920     0.7410 nd         1 2OL      -0.675100
      8 C8           7.4840     1.2130     0.3630 ca         1 2OL       0.159400
      9 C9           8.8070     0.7870     0.5230 ca         1 2OL      -0.097000
     10 C10          9.8310     1.5350     0.0250 ca         1 2OL      -0.126000
     11 C11          9.5730     2.7350    -0.6490 ca         1 2OL       0.020000
     12 C12          8.2600     3.1730    -0.8170 ca         1 2OL      -0.088000
     13 C13          7.2180     2.4160    -0.3130 ca         1 2OL      -0.102200
     14 N14          5.8370     2.5640    -0.3090 na         1 2OL      -0.217100
     15 C15          5.1160     3.6130    -0.8740 ca         1 2OL       0.617800
     16 C16          5.4920     4.9360    -0.6410 ca         1 2OL      -0.424600
     17 C17          4.7470     5.9450    -1.2220 ca         1 2OL       0.485200
     18 N18          3.7050     5.6290    -1.9750 nb         1 2OL      -0.835000
     19 C19          3.3700     4.3630    -2.1780 ca         1 2OL       0.936900
     20 N20          4.0630     3.3680    -1.6440 nb         1 2OL      -0.824000
     21 N21          2.2740     4.0730    -2.9720 nv         1 2OL      -0.990500
     22 C22         10.6580     3.5120    -1.1670 cg         1 2OL      -0.134000
     23 C23         11.5370     4.1660    -1.5910 c1         1 2OL      -0.203100
     24 C24         12.6500     4.9820    -2.1000 c3         1 2OL       0.232900
     25 C25         13.5320     4.9860    -1.1350 c3         1 2OL      -0.042900
     26 C26         14.5120     5.8400    -1.8730 c3         1 2OL      -0.094900
     27 C27         14.0330     7.4110    -2.1500 c3         1 2OL      -0.073400
     28 C28         12.6930     7.2870    -3.1200 c3         1 2OL      -0.094900
     29 C29         11.5070     6.3110    -2.3980 c3         1 2OL      -0.042900
     30 O30         12.8070     4.2350    -3.3700 oh         1 2OL      -0.604800
     31 H1           0.0950     1.0740     0.1110 h1         1 2OL       0.063367
     32 H2          -0.0450    -0.4430    -0.9880 h1         1 2OL       0.063367
     33 H3          -0.3720    -0.7770     0.6570 h1         1 2OL       0.063367
     34 H4           1.9650     1.0760     1.4250 h1         1 2OL       0.046200
     35 H5           1.4450    -0.6160     1.9930 h1         1 2OL       0.046200
     36 H6           4.1610    -0.0260     2.0680 h1         1 2OL       0.065200
     37 H7           3.8570    -0.8350     0.5740 h1         1 2OL       0.065200
     38 H8           3.4250     1.9600     0.1180 hn         1 2OL       0.455800
     39 H9           9.2550    -0.1560     0.8150 ha         1 2OL       0.145000
     40 H10         10.8690     1.3580     0.2810 ha         1 2OL       0.138000
     41 H11          7.9180     3.9490    -1.4910 ha         1 2OL       0.140000
     42 H12          5.9290     5.3070     0.2780 ha         1 2OL       0.162000
     43 H13          4.3830     6.9440    -1.0130 h4         1 2OL       0.062100
     44 H14          2.0750     4.9880    -3.3230 hn         1 2OL       0.465800
     45 H15          1.7470     3.2270    -3.0660 hn         1 2OL       0.465800
     46 H16         13.0630     5.3820    -0.2430 hc         1 2OL       0.072700
     47 H17         14.1220     4.1360    -0.8150 hc         1 2OL       0.072700
     48 H18         15.1740     6.3340    -1.1710 hc         1 2OL       0.046950
     49 H19         15.0460     5.3730    -2.6910 hc         1 2OL       0.046950
     50 H20         13.9280     8.1960    -1.4100 hc         1 2OL       0.042200
     51 H21         14.7010     7.8930    -2.8530 hc         1 2OL       0.042200
     52 H22         12.1810     8.1220    -3.5840 hc         1 2OL       0.046950
     53 H23         12.9910     6.8080    -4.0450 hc         1 2OL       0.046950
     54 H24         10.7980     6.0330    -3.1680 hc         1 2OL       0.072700
     55 H25         11.0330     6.5820    -1.4630 hc         1 2OL       0.072700
     56 H26         12.9500     3.3180    -3.2050 ho         1 2OL       0.406000
@<TRIPOS>BOND
     1    29    28 1
     2    29    24 1
     3    28    27 1
     4    10     9 ar
     5    10    11 ar
     6    30    24 1
     7     9     8 ar
     8    24    23 1
     9    24    25 1
    10    23    22 3
    11    22    11 1
    12    11    12 ar
    13     8     7 1
    14     8    13 ar
    15    27    26 1
    16     7     6 2
    17    12    13 ar
    18    13    14 1
    19    25    26 1
    20     6    14 1
    21     6     5 1
    22    14    15 1
    23     4     5 1
    24     4     3 1
    25     2     3 1
    26     2     1 1
    27    15    16 ar
    28    15    20 ar
    29    16    17 ar
    30    20    19 ar
    31    17    18 ar
    32    19    18 ar
    33    19    21 1
    34     1    31 1
    35     1    32 1
    36     1    33 1
    37     3    34 1
    38     3    35 1
    39     4    36 1
    40     4    37 1
    41     5    38 1
    42     9    39 1
    43    10    40 1
    44    12    41 1
    45    16    42 1
    46    17    43 1
    47    21    44 1
    48    21    45 1
    49    25    46 1
    50    25    47 1
    51    26    48 1
    52    26    49 1
    53    27    50 1
    54    27    51 1
    55    28    52 1
    56    28    53 1
    57    29    54 1
    58    29    55 1
    59    30    56 1
@<TRIPOS>SUBSTRUCTURE
     1 2OL         1 TEMP              0 ****  ****    0 ROOT
