@<TRIPOS>MOLECULE
2OL
   56    59     1     0     0
SMALL
bcc


@<TRIPOS>ATOM
      1 C1           0.0000     0.0000     0.0000 c3         1 2OL       0.204700
      2 O2           1.4290     0.0000     0.0000 os         1 2OL      -0.471600
      3 C3           2.0110     0.0000     1.3040 c3         1 2OL       0.187400
      4 C4           3.5360     0.0010     1.1830 c3         1 2OL       0.182800
      5 N5           3.9760     1.2520     0.5640 nu         1 2OL      -0.469200
      6 C6           5.3190     1.4810     0.3490 cc         1 2OL       0.352700
      7 N7           6.2880     0.6920     0.7410 nd         1 2OL      -0.613100
      8 C8           7.4840     1.2130     0.3630 ca         1 2OL       0.137400
      9 C9           8.8070     0.7870     0.5230 ca         1 2OL      -0.064000
     10 C10          9.8310     1.5350     0.0250 ca         1 2OL      -0.113000
     11 C11          9.5730     2.7350    -0.6490 ca         1 2OL       0.044000
     12 C12          8.2600     3.1730    -0.8170 ca         1 2OL      -0.058000
     13 C13          7.2180     2.4160    -0.3130 ca         1 2OL      -0.283200
     14 N14          5.8370     2.5640    -0.3090 na         1 2OL       0.274900
     15 C15          5.1160     3.6130    -0.8740 ca         1 2OL       0.417800
     16 C16          5.4920     4.9360    -0.6410 ca         1 2OL      -0.393600
     17 C17          4.7470     5.9450    -1.2220 ca         1 2OL       0.480200
     18 N18          3.7050     5.6290    -1.9750 nb         1 2OL      -0.747000
     19 C19          3.3700     4.3630    -2.1780 ca         1 2OL       0.717900
     20 N20          4.0630     3.3680    -1.6440 nb         1 2OL      -0.710000
     21 N21          2.2740     4.0730    -2.9720 nv         1 2OL      -0.511500
     22 C22         10.6580     3.5120    -1.1670 cg         1 2OL      -0.121000
     23 C23         11.5370     4.1660    -1.5910 c1         1 2OL      -0.232100
     24 C24         12.6500     4.9820    -2.1000 c3         1 2OL       0.274900
     25 C25         13.5320     4.9860    -1.1350 c3         1 2OL       0.009600
     26 C26         14.5120     5.8400    -1.8730 c3         1 2OL      -0.040900
     27 C27         14.0330     7.4110    -2.1500 c3         1 2OL      -0.001400
     28 C28         12.6930     7.2870    -3.1200 c3         1 2OL      -0.040900
     29 C29         11.5070     6.3110    -2.3980 c3         1 2OL       0.009600
     30 O30         12.8070     4.2350    -3.3700 oh         1 2OL      -0.589800
     31 H1           0.0950     1.0740     0.1110 h1         1 2OL       0.022367
     32 H2          -0.0450    -0.4430    -0.9880 h1         1 2OL       0.022367
     33 H3          -0.3720    -0.7770     0.6570 h1         1 2OL       0.022367
     34 H4           1.9650     1.0760     1.4250 h1         1 2OL       0.009200
     35 H5           1.4450    -0.6160     1.9930 h1         1 2OL       0.009200
     36 H6           4.1610    -0.0260     2.0680 h1         1 2OL       0.033700
     37 H7           3.8570    -0.8350     0.5740 h1         1 2OL       0.033700
     38 H8           3.4250     1.9600     0.1180 hn         1 2OL       0.306800
     39 H9           9.2550    -0.1560     0.8150 ha         1 2OL       0.113000
     40 H10         10.8690     1.3580     0.2810 ha         1 2OL       0.109000
     41 H11          7.9180     3.9490    -1.4910 ha         1 2OL       0.113000
     42 H12          5.9290     5.3070     0.2780 ha         1 2OL       0.140000
     43 H13          4.3830     6.9440    -1.0130 h4         1 2OL       0.015100
     44 H14          2.0750     4.9880    -3.3230 hn         1 2OL       0.295300
     45 H15          1.7470     3.2270    -3.0660 hn         1 2OL       0.295300
     46 H16         13.0630     5.3820    -0.2430 hc         1 2OL       0.038700
     47 H17         14.1220     4.1360    -0.8150 hc         1 2OL       0.038700
     48 H18         15.1740     6.3340    -1.1710 hc         1 2OL       0.015450
     49 H19         15.0460     5.3730    -2.6910 hc         1 2OL       0.015450
     50 H20         13.9280     8.1960    -1.4100 hc         1 2OL       0.006700
     51 H21         14.7010     7.8930    -2.8530 hc         1 2OL       0.006700
     52 H22         12.1810     8.1220    -3.5840 hc         1 2OL       0.015450
     53 H23         12.9910     6.8080    -4.0450 hc         1 2OL       0.015450
     54 H24         10.7980     6.0330    -3.1680 hc         1 2OL       0.038700
     55 H25         11.0330     6.5820    -1.4630 hc         1 2OL       0.038700
     56 H26         12.9500     3.3180    -3.2050 ho         1 2OL       0.397000
@<TRIPOS>BOND
     1     1     2 1   
     2     1    31 1   
     3     1    32 1   
     4     1    33 1   
     5     2     3 1   
     6     3     4 1   
     7     3    34 1   
     8     3    35 1   
     9     4     5 1   
    10     4    36 1   
    11     4    37 1   
    12     5     6 1   
    13     5    38 1   
    14     6     7 2   
    15     6    14 1   
    16     7     8 1   
    17     8     9 ar  
    18     8    13 ar  
    19     9    10 ar  
    20     9    39 1   
    21    10    11 ar  
    22    10    40 1   
    23    11    12 ar  
    24    11    22 1   
    25    12    13 ar  
    26    12    41 1   
    27    13    14 1   
    28    14    15 1   
    29    15    16 ar  
    30    15    20 ar  
    31    16    17 ar  
    32    16    42 1   
    33    17    18 ar  
    34    17    43 1   
    35    18    19 ar  
    36    19    20 ar  
    37    19    21 1   
    38    21    44 1   
    39    21    45 1   
    40    22    23 3   
    41    23    24 1   
    42    24    25 1   
    43    24    29 1   
    44    24    30 1   
    45    25    26 1   
    46    25    46 1   
    47    25    47 1   
    48    26    27 1   
    49    26    48 1   
    50    26    49 1   
    51    27    28 1   
    52    27    50 1   
    53    27    51 1   
    54    28    29 1   
    55    28    52 1   
    56    28    53 1   
    57    29    54 1   
    58    29    55 1   
    59    30    56 1   
@<TRIPOS>SUBSTRUCTURE
     1 2OL         1 TEMP              0 ****  ****    0 ROOT
