@<TRIPOS>MOLECULE
2ON
   15    16     1     0     0
SMALL
bcc


@<TRIPOS>ATOM
      1 C6           0.0000     0.0000     0.0000 c          1 2ON       0.523000
      2 N1           1.3510     0.0000     0.0000 ns         1 2ON       0.031600
      3 C2           2.0400     0.0000     1.1780 cc         1 2ON       0.334800
      4 N3           1.4270    -0.0000     2.3410 nd         1 2ON      -0.501100
      5 C4           0.0910     0.0010     2.4190 cd         1 2ON      -0.169200
      6 C5          -0.6710     0.0070     1.2450 cc         1 2ON       0.190800
      7 N9          -0.8040     0.0010     3.4540 na         1 2ON       0.266100
      8 C8          -2.0570     0.0020     2.9120 cd         1 2ON       0.217400
      9 N7          -1.9760     0.0060     1.6140 nc         1 2ON      -0.515000
     10 O6          -0.6250    -0.0010    -1.0460 o          1 2ON      -0.643500
     11 S2           3.8020    -0.0010     1.1390 sh         1 2ON      -0.303000
     12 HN1          1.8490     0.0000    -0.8680 hn         1 2ON       0.196500
     13 HS2          4.2610     1.0220     1.8490 hs         1 2ON       0.212800
     14 HC8         -2.9800    -0.0010     3.4790 h5         1 2ON       0.029100
     15 HN9         -0.5800    -0.0020     4.4290 hn         1 2ON       0.129700
@<TRIPOS>BOND
     1     1     2 1   
     2     1     6 1   
     3     1    10 2   
     4     2     3 1   
     5     2    12 1   
     6     3     4 2   
     7     3    11 1   
     8     4     5 1   
     9     5     6 2   
    10     5     7 1   
    11     6     9 1   
    12     7     8 1   
    13     7    15 1   
    14     8     9 2   
    15     8    14 1   
    16    11    13 1   
@<TRIPOS>SUBSTRUCTURE
     1 2ON         1 TEMP              0 ****  ****    0 ROOT
