@<TRIPOS>MOLECULE
molecule
   44    46     1     0     0
SMALL
bcc


@<TRIPOS>ATOM
      1 C1           0.0000     0.0000     0.0000 c3         1 2OO      -0.109100
      2 C2           1.5310     0.0000     0.0000 c3         1 2OO       0.213800
      3 N3           2.0180     0.0000     1.3820 nu         1 2OO      -0.825200
      4 C4           3.3730    -0.0010     1.6340 cc         1 2OO       0.692700
      5 N5           4.3090     0.0040     0.7180 nd         1 2OO      -0.675100
      6 C6           5.5320     0.0020     1.3100 ca         1 2OO       0.130400
      7 C7           6.8370     0.0060     0.8090 ca         1 2OO      -0.090000
      8 C8           7.8980     0.0020     1.6660 ca         1 2OO      -0.102000
      9 C9           7.6940    -0.0050     3.0500 ca         1 2OO      -0.013000
     10 C10          6.3980    -0.0080     3.5650 ca         1 2OO      -0.071000
     11 C11          5.3190    -0.0050     2.7000 ca         1 2OO      -0.092200
     12 N12          3.9420    -0.0010     2.8800 na         1 2OO      -0.190100
     13 C13          3.2690    -0.0000     4.0950 ca         1 2OO       0.854500
     14 N14          3.9530     0.0050     5.2350 nb         1 2OO      -0.855000
     15 C15          3.3130     0.0070     6.3920 ca         1 2OO       0.766900
     16 N16          1.9930     0.0020     6.4200 nb         1 2OO      -0.829000
     17 C17          1.3010    -0.0040     5.2820 ca         1 2OO       0.953900
     18 N18          1.9420     0.0000     4.1190 nb         1 2OO      -0.893000
     19 N19         -0.0790    -0.0100     5.3130 nv         1 2OO      -0.909500
     20 C20          8.8170    -0.0100     3.9390 cg         1 2OO      -0.130000
     21 C21          9.7400     0.0070     4.6650 c1         1 2OO      -0.139100
     22 C22         11.1430    -0.5130     5.3060 c3         1 2OO       0.161900
     23 C23         11.8890     0.9080     5.4250 c3         1 2OO      -0.078600
     24 C24         11.7670    -1.7810     4.5830 c3         1 2OO      -0.078600
     25 O25         10.7030    -0.9150     6.6380 oh         1 2OO      -0.612800
     26 H1          -0.3330    -0.3460    -0.9710 hc         1 2OO       0.049700
     27 H2          -0.1090     1.0430    -0.2710 hc         1 2OO       0.049700
     28 H3          -0.5460    -0.1680     0.9200 hc         1 2OO       0.049700
     29 H4           1.6330    -1.0040    -0.3930 h1         1 2OO       0.048200
     30 H5           2.2510     0.4120    -0.6960 h1         1 2OO       0.048200
     31 H6           1.4040    -0.4000     2.0630 hn         1 2OO       0.456800
     32 H7           6.7600    -0.1620    -0.2590 ha         1 2OO       0.153000
     33 H8           8.9680    -0.1560     1.5930 ha         1 2OO       0.148000
     34 H9           6.3400     0.3780     4.5760 ha         1 2OO       0.160000
     35 H10          4.1260    -0.3640     7.0030 h5         1 2OO       0.095100
     36 H11         -0.5030    -0.1050     4.4110 hn         1 2OO       0.435300
     37 H12         -0.3890    -0.5460     6.0990 hn         1 2OO       0.435300
     38 H13         12.6330     0.4940     6.0950 hc         1 2OO       0.065533
     39 H14         12.0210     1.2120     4.3940 hc         1 2OO       0.065533
     40 H15         11.3620     1.6380     6.0280 hc         1 2OO       0.065533
     41 H16         11.9770    -1.2950     3.6380 hc         1 2OO       0.065533
     42 H17         12.5300    -1.7930     5.3520 hc         1 2OO       0.065533
     43 H18         11.0140    -2.4950     4.8930 hc         1 2OO       0.065533
     44 H19         11.0970    -1.7330     6.8910 ho         1 2OO       0.397000
@<TRIPOS>BOND
     1     1     2 1   
     2     2     3 1   
     3     7     6 ar  
     4     7     8 ar  
     5     5     6 1   
     6     5     4 2   
     7     6    11 ar  
     8     8     9 ar  
     9     3     4 1   
    10     4    12 1   
    11    11    12 1   
    12    11    10 ar  
    13     9    10 ar  
    14     9    20 1   
    15    12    13 1   
    16    20    21 3   
    17    14    13 ar  
    18    14    15 ar  
    19    13    18 ar  
    20    25    22 1   
    21    21    22 1   
    22    15    16 ar  
    23    22    23 1   
    24    22    24 1   
    25    18    17 ar  
    26    16    17 ar  
    27    17    19 1   
    28     1    26 1   
    29     1    27 1   
    30     1    28 1   
    31     2    29 1   
    32     2    30 1   
    33     3    31 1   
    34     7    32 1   
    35     8    33 1   
    36    10    34 1   
    37    15    35 1   
    38    19    36 1   
    39    19    37 1   
    40    23    38 1   
    41    23    39 1   
    42    23    40 1   
    43    24    41 1   
    44    24    42 1   
    45    24    43 1   
    46    25    44 1   
@<TRIPOS>SUBSTRUCTURE
     1 2OO         1 TEMP              0 ****  ****    0 ROOT
