@<TRIPOS>MOLECULE
molecule
   11    10     1     0     0
SMALL
bcc


@<TRIPOS>ATOM
      1 C            0.0000     0.0000     0.0000 c          1 2OP       0.881600
      2 O           -0.6050    -0.0920     1.0420 o          1 2OP      -0.843300
      3 CB           2.0160    -1.2500    -0.7210 c3         1 2OP      -0.079100
      4 OHN          1.9830     0.0000     1.3470 oh         1 2OP      -0.602800
      5 CA           1.5060     0.0000     0.0000 c3         1 2OP       0.035100
      6 OXT         -0.6710     0.0950    -1.1590 o          1 2OP      -0.843300
      7 HB1          1.5710    -2.1310    -0.2750 hc         1 2OP       0.024033
      8 HB2          1.7450    -1.1980    -1.7690 hc         1 2OP       0.024033
      9 HB3          3.0940    -1.3040    -0.6300 hc         1 2OP       0.024033
     10 HHN          2.4540     0.8000     1.5140 ho         1 2OP       0.366000
     11 HA           1.8670     0.8840    -0.5110 h1         1 2OP       0.011700
@<TRIPOS>BOND
     1     1     2 1   
     2     1     5 1   
     3     3     5 1   
     4     3     7 1   
     5     3     8 1   
     6     3     9 1   
     7     4     5 1   
     8     1     6 1   
     9     4    10 1   
    10     5    11 1   
@<TRIPOS>SUBSTRUCTURE
     1 2OP         1 TEMP              0 ****  ****    0 ROOT
