@<TRIPOS>MOLECULE
2OP
   11    10     1     0     0
SMALL
bcc


@<TRIPOS>ATOM
      1 C           0.0920    0.1780   -0.0270 c         1 2OP      0.892600
      2 O          -0.4100    0.2060    1.1360 o         1 2OP     -0.840300
      3 CB          2.0260   -1.2810   -0.7080 c3        1 2OP     -0.089100
      4 OHN         2.2510    0.2110    1.1550 oh        1 2OP     -0.651800
      5 CA          1.6340    0.0580   -0.1150 c3        1 2OP      0.013100
      6 OXT        -0.5680    0.2460   -1.0990 o         1 2OP     -0.840300
      7 HB1         3.1300   -1.3370   -0.8670 hc        1 2OP      0.020033
      8 HB2         1.7290   -2.1080   -0.0200 hc        1 2OP      0.020033
      9 HB3         1.5030   -1.4140   -1.6840 hc        1 2OP      0.020033
     10 HHN         1.5430    0.1510    1.8180 ho        1 2OP      0.422000
     11 HA          2.0340    0.8920   -0.7540 h1        1 2OP      0.031700
@<TRIPOS>BOND
     1    1    2 1   
     2    1    5 1   
     3    1    6 1   
     4    3    5 1   
     5    3    7 1   
     6    3    8 1   
     7    3    9 1   
     8    4    5 1   
     9    4   10 1   
    10    5   11 1   
@<TRIPOS>SUBSTRUCTURE
     1 2OP         1 TEMP              0 ****  ****    0 ROOT
