@<TRIPOS>MOLECULE
2OQ
   46    49     1     0     0
SMALL
bcc


@<TRIPOS>ATOM
      1 C1           0.0000     0.0000     0.0000 c3         1 2OQ      -0.007400
      2 C2           1.5060     0.0000     0.0000 cc         1 2OQ       0.237800
      3 N3           2.2520     0.0000     1.0660 nd         1 2OQ      -0.506100
      4 C4           3.5630    -0.0010     0.7100 ca         1 2OQ       0.069400
      5 C5           4.7550    -0.0010     1.4400 ca         1 2OQ      -0.049000
      6 C6           5.9550    -0.0010     0.7910 ca         1 2OQ      -0.096000
      7 C7           6.0050    -0.0020    -0.6070 ca         1 2OQ       0.061000
      8 C8           4.8270    -0.0020    -1.3500 ca         1 2OQ      -0.058000
      9 C9           3.6070    -0.0010    -0.6960 ca         1 2OQ      -0.260200
     10 N10          2.2890    -0.0070    -1.1190 na         1 2OQ       0.331900
     11 C11          1.8450    -0.0150    -2.4360 ca         1 2OQ       0.631500
     12 N12          2.7240    -0.0210    -3.4340 nb         1 2OQ      -0.758000
     13 C13          2.3030    -0.0300    -4.6870 ca         1 2OQ       0.746900
     14 N14          1.0090    -0.0310    -4.9530 nb         1 2OQ      -0.768000
     15 C15          0.1240    -0.0250    -3.9590 ca         1 2OQ       0.756900
     16 N16          0.5440    -0.0220    -2.6980 nb         1 2OQ      -0.773000
     17 N17         -1.2280    -0.0260    -4.2370 nv         1 2OQ      -0.462500
     18 C18          7.2720    -0.0010    -1.2770 cg         1 2OQ      -0.135000
     19 C19          8.3050     0.0170    -1.8340 c1         1 2OQ      -0.142100
     20 C20          9.4610    -0.3550    -2.9400 c3         1 2OQ       0.354900
     21 C21         10.3580    -1.1170    -2.2490 c3         1 2OQ      -0.076900
     22 C22          9.8610    -2.4550    -1.9680 c3         1 2OQ      -0.032900
     23 C23          9.5780    -3.1500    -3.5700 c3         1 2OQ      -0.006400
     24 C24          8.5510    -1.8960    -4.1950 c3         1 2OQ      -0.032900
     25 C25          9.0940    -0.5920    -4.0710 c3         1 2OQ      -0.076900
     26 O26         10.1820     0.9820    -2.8920 oh         1 2OQ      -0.632800
     27 H1          -0.3610    -0.4930     0.8950 hc         1 2OQ       0.026700
     28 H2          -0.3610     1.0210    -0.0210 hc         1 2OQ       0.026700
     29 H3          -0.3610    -0.5280    -0.8740 hc         1 2OQ       0.026700
     30 H4           4.7270    -0.0010     2.5230 ha         1 2OQ       0.112000
     31 H5           6.8770    -0.0010     1.3590 ha         1 2OQ       0.112000
     32 H6           4.8690    -0.0030    -2.4320 ha         1 2OQ       0.135000
     33 H7           3.0200    -0.0350    -5.4990 h5         1 2OQ       0.003100
     34 H8          -1.8910    -0.1070    -3.4920 hn         1 2OQ       0.279300
     35 H9          -1.5450     0.0940    -5.1780 hn         1 2OQ       0.279300
     36 H10         10.5830    -0.6250    -1.3100 hc         1 2OQ       0.048450
     37 H11         11.2670    -1.2000    -2.8330 hc         1 2OQ       0.048450
     38 H12         10.6050    -3.0310    -1.4310 hc         1 2OQ       0.020700
     39 H13          8.9340    -2.4040    -1.4080 hc         1 2OQ       0.020700
     40 H14          9.0540    -4.0960    -3.5050 hc         1 2OQ       0.015700
     41 H15         10.4980    -3.2290    -4.1360 hc         1 2OQ       0.015700
     42 H16          8.3690    -2.0930    -5.2450 hc         1 2OQ       0.020700
     43 H17          7.6080    -1.9270    -3.6640 hc         1 2OQ       0.020700
     44 H18          8.3370     0.1300    -4.3510 hc         1 2OQ       0.048450
     45 H19          9.9400    -0.5000    -4.7400 hc         1 2OQ       0.048450
     46 H20         10.3910     1.2580    -3.7690 ho         1 2OQ       0.378000
@<TRIPOS>BOND
     1     1     2 1   
     2     1    27 1   
     3     1    28 1   
     4     1    29 1   
     5     2     3 2   
     6     2    10 1   
     7     3     4 1   
     8     4     5 ar  
     9     4     9 ar  
    10     5     6 ar  
    11     5    30 1   
    12     6     7 ar  
    13     6    31 1   
    14     7     8 ar  
    15     7    18 1   
    16     8     9 ar  
    17     8    32 1   
    18     9    10 1   
    19    10    11 1   
    20    11    12 ar  
    21    11    16 ar  
    22    12    13 ar  
    23    13    14 ar  
    24    13    33 1   
    25    14    15 ar  
    26    15    16 ar  
    27    15    17 1   
    28    17    34 1   
    29    17    35 1   
    30    18    19 3   
    31    19    20 1   
    32    20    21 1   
    33    20    25 1   
    34    20    26 1   
    35    21    22 1   
    36    21    36 1   
    37    21    37 1   
    38    22    23 1   
    39    22    38 1   
    40    22    39 1   
    41    23    24 1   
    42    23    40 1   
    43    23    41 1   
    44    24    25 1   
    45    24    42 1   
    46    24    43 1   
    47    25    44 1   
    48    25    45 1   
    49    26    46 1   
@<TRIPOS>SUBSTRUCTURE
     1 2OQ         1 TEMP              0 ****  ****    0 ROOT
