@<TRIPOS>MOLECULE
molecule
   68    69     1     0     0
SMALL
bcc


@<TRIPOS>ATOM
      1 C4           0.0000     0.0000     0.0000 c          1 2OS       0.629100
      2 C7           1.5070     0.0000     0.0000 c3         1 2OS      -0.124400
      3 C8           2.0170     0.0000     1.4420 c3         1 2OS      -0.072400
      4 C9           3.5470     0.0010     1.4420 c3         1 2OS      -0.084400
      5 C10          4.0580     0.0020     2.8830 c3         1 2OS      -0.080400
      6 C11          5.5880     0.0020     2.8830 c3         1 2OS      -0.082400
      7 C12          6.0980     0.0020     4.3250 c3         1 2OS      -0.084400
      8 C1          -7.9670    -1.0000    -1.1730 c3         1 2OS       0.135100
      9 C2          -7.8130     0.2180    -0.2280 c3         1 2OS       0.089100
     10 C3          -6.8760    -0.3720     0.8650 c3         1 2OS       0.113100
     11 C13         -5.9860    -1.3300     0.0470 c3         1 2OS       0.320600
     12 O2          -6.6840    -1.6460    -1.1640 os         1 2OS      -0.387600
     13 O4          -9.0720     0.6040     0.3260 oh         1 2OS      -0.600800
     14 C18         -5.7280    -2.6080     0.8460 c3         1 2OS       0.125400
     15 O3          -4.8710    -3.4740     0.0970 oh         1 2OS      -0.601800
     16 O5          -6.0960     0.6580     1.4760 oh         1 2OS      -0.568800
     17 C21         -4.1580    -1.4310    -1.3370 c3         1 2OS       0.294900
     18 C24         -2.6370    -1.4450    -1.1680 c3         1 2OS       0.113100
     19 C27         -2.1240    -0.0010    -1.1610 c3         1 2OS       0.128100
     20 C16         -2.6380     0.7120    -2.4170 c3         1 2OS       0.124100
     21 C29         -4.1590     0.5630    -2.4870 c3         1 2OS       0.122100
     22 O9          -2.2990    -2.0870     0.0620 oh         1 2OS      -0.566800
     23 O11         -0.6720    -0.0010    -1.1620 os         1 2OS      -0.450900
     24 O13         -2.2930     2.0970    -2.3550 oh         1 2OS      -0.596800
     25 O15         -4.5060    -0.8170    -2.5770 os         1 2OS      -0.381600
     26 O6          -4.7440    -0.6940    -0.2630 os         1 2OS      -0.382600
     27 C31          7.6280     0.0030     4.3250 c3         1 2OS      -0.092100
     28 O7          -0.6040    -0.0000     1.0450 o          1 2OS      -0.522000
     29 H71          1.8680    -0.8840    -0.5110 hc         1 2OS       0.066700
     30 H72          1.8680     0.8840    -0.5110 hc         1 2OS       0.066700
     31 H81          1.6570    -0.8850     1.9530 hc         1 2OS       0.060200
     32 H82          1.6560     0.8840     1.9530 hc         1 2OS       0.060200
     33 H91          3.9080     0.8850     0.9300 hc         1 2OS       0.039200
     34 H92          3.9090    -0.8840     0.9320 hc         1 2OS       0.039200
     35 H101         3.6970    -0.8820     3.3950 hc         1 2OS       0.044200
     36 H102         3.6980     0.8870     3.3930 hc         1 2OS       0.044200
     37 H111         5.9490    -0.8830     2.3720 hc         1 2OS       0.040200
     38 H112         5.9500     0.8860     2.3710 hc         1 2OS       0.040200
     39 H121         5.7370    -0.8820     4.8360 hc         1 2OS       0.040700
     40 H122         5.7370     0.8870     4.8350 hc         1 2OS       0.040700
     41 H1          -8.7260    -1.6720    -0.7930 h1         1 2OS       0.066700
     42 H2          -7.3350     1.0450    -0.7400 h1         1 2OS       0.082700
     43 H3          -7.4490    -0.9200     1.6030 h1         1 2OS       0.062700
     44 HO4         -9.1570     1.5420     0.2910 ho         1 2OS       0.411000
     45 HO1         -9.1310    -1.5020    -4.0820 ho         1 2OS       0.394000
     46 H181        -5.2540    -2.3560     1.7870 h1         1 2OS       0.041200
     47 H182        -6.6690    -3.1100     1.0380 h1         1 2OS       0.041200
     48 HO3         -4.9580    -4.3560     0.4180 ho         1 2OS       0.402000
     49 HO5         -6.3890     0.7910     2.3620 ho         1 2OS       0.405000
     50 H21         -4.5290    -2.4490    -1.3260 h2         1 2OS       0.139700
     51 H24         -2.1890    -1.9810    -1.9960 h1         1 2OS       0.051700
     52 H27         -2.4920     0.5100    -0.2790 h1         1 2OS       0.112700
     53 H16         -2.1910     0.2620    -3.2950 h1         1 2OS       0.046700
     54 H29         -4.6010     0.9860    -1.5930 h1         1 2OS       0.091700
     55 HO9         -1.7890    -2.8600    -0.1170 ho         1 2OS       0.398000
     56 H13         -1.5950     2.2750    -2.9630 ho         1 2OS       0.407000
     57 H17         -6.4380     1.9140    -4.3380 ho         1 2OS       0.398000
     58 H311         7.9890     0.0030     5.3470 hc         1 2OS       0.032700
     59 H312         7.9890     0.8870     3.8150 hc         1 2OS       0.032700
     60 H313         7.9890    -0.8820     3.8150 hc         1 2OS       0.032700
     61 C32         -4.6860     1.3000    -3.7200 c3         1 2OS       0.150400
     62 C17         -8.3190    -0.5360    -2.5860 c3         1 2OS       0.132400
     63 O1          -8.4640    -1.6750    -3.4380 oh         1 2OS      -0.594800
     64 O17         -6.1150     1.2970    -3.7020 oh         1 2OS      -0.607800
     65 H171        -7.5280     0.1000    -2.9650 h1         1 2OS       0.051200
     66 H172        -9.2480     0.0190    -2.5640 h1         1 2OS       0.051200
     67 H321        -4.3260     2.3220    -3.7110 h1         1 2OS       0.034700
     68 H322        -4.3350     0.8010    -4.6160 h1         1 2OS       0.034700
@<TRIPOS>BOND
     1     1     2 1   
     2     1    23 1   
     3     1    28 2   
     4     2     3 1   
     5     2    29 1   
     6     2    30 1   
     7     3     4 1   
     8     3    31 1   
     9     3    32 1   
    10     4     5 1   
    11     4    33 1   
    12     4    34 1   
    13     5     6 1   
    14     5    35 1   
    15     5    36 1   
    16     6     7 1   
    17     6    37 1   
    18     6    38 1   
    19     7    27 1   
    20     7    39 1   
    21     7    40 1   
    22     8     9 1   
    23     8    12 1   
    24     8    62 1   
    25     8    41 1   
    26     9    10 1   
    27     9    13 1   
    28     9    42 1   
    29    10    11 1   
    30    10    16 1   
    31    10    43 1   
    32    11    12 1   
    33    11    14 1   
    34    11    26 1   
    35    13    44 1   
    36    62    63 1   
    37    62    65 1   
    38    62    66 1   
    39    63    45 1   
    40    14    15 1   
    41    14    46 1   
    42    14    47 1   
    43    15    48 1   
    44    16    49 1   
    45    17    18 1   
    46    17    25 1   
    47    17    26 1   
    48    17    50 1   
    49    18    19 1   
    50    18    22 1   
    51    18    51 1   
    52    19    20 1   
    53    19    23 1   
    54    19    52 1   
    55    20    21 1   
    56    20    24 1   
    57    20    53 1   
    58    21    25 1   
    59    21    61 1   
    60    21    54 1   
    61    22    55 1   
    62    24    56 1   
    63    61    64 1   
    64    61    67 1   
    65    61    68 1   
    66    64    57 1   
    67    27    58 1   
    68    27    59 1   
    69    27    60 1   
@<TRIPOS>SUBSTRUCTURE
     1 2OS         1 TEMP              0 ****  ****    0 ROOT
