@<TRIPOS>MOLECULE
molecule
   53    55     1     0     0
SMALL
bcc


@<TRIPOS>ATOM
      1 C10          0.0000     0.0000     0.0000 ca         1 2OW      -0.098300
      2 C13          1.3770     0.0110     2.4040 ca         1 2OW      -0.103000
      3 C20          7.4370     0.9170     3.5460 ca         1 2OW       0.395200
      4 C22          7.6100     2.5380     5.1740 ca         1 2OW       0.410600
      5 C24          6.3770     3.0670     4.8410 ca         1 2OW      -0.236300
      6 C26          1.3830     0.0000     0.0000 ca         1 2OW       0.091900
      7 C28          0.5660    -1.8220    -2.2120 c3         1 2OW       0.137800
      8 C01          1.2630    -5.3110    -6.2480 c3         1 2OW       0.158700
      9 O02          1.0230    -4.6240    -4.9910 os         1 2OW      -0.443900
     10 O04         -1.0670    -4.2650    -5.6450 o          1 2OW      -0.615000
     11 N05         -0.5020    -3.4800    -3.6460 n          1 2OW      -0.481800
     12 C06         -1.8460    -2.9300    -3.4090 c3         1 2OW       0.119500
     13 C07         -1.7040    -1.4630    -2.9890 c3         1 2OW       0.137800
     14 N08         -0.7840    -1.3700    -1.8480 n3         1 2OW      -0.727600
     15 C09         -0.7530    -0.0050    -1.3050 c3         1 2OW       0.212100
     16 C11         -0.6920    -0.0010     1.1970 ca         1 2OW      -0.103000
     17 C12         -0.0050     0.0050     2.3970 ca         1 2OW      -0.125000
     18 C14          2.0770     0.0000     1.2050 ca         1 2OW       0.036600
     19 N15          3.4770     0.0060     1.2100 ns         1 2OW      -0.485100
     20 C16          4.1450     0.6840     2.1640 c          1 2OW       0.786100
     21 O17          3.5340     1.2220     3.0680 o          1 2OW      -0.640100
     22 N18          5.4890     0.7660     2.1160 ns         1 2OW      -0.484100
     23 C19          6.1890     1.3870     3.1570 ca         1 2OW      -0.065700
     24 N21          8.0970     1.4950     4.5290 nb         1 2OW      -0.677000
     25 C25          5.6460     2.4860     3.8170 ca         1 2OW      -0.089000
     26 F27          2.0600     0.0010    -1.1700 f          1 2OW      -0.146900
     27 C29          0.5170    -3.3040    -2.6000 c3         1 2OW       0.119500
     28 H1           1.9140     0.0140     3.3450 ha         1 2OW       0.177000
     29 H2           7.8700     0.0630     3.0400 h4         1 2OW       0.020100
     30 H3           5.9850     3.9230     5.3770 ha         1 2OW       0.143000
     31 H4           1.2300    -1.6930    -1.3660 h1         1 2OW       0.047950
     32 H5           0.9260    -1.2410    -3.0530 h1         1 2OW       0.047950
     33 H6           1.0870    -4.6290    -7.0710 h1         1 2OW       0.048700
     34 H7           0.5940    -6.1580    -6.3310 h1         1 2OW       0.048700
     35 H8           2.2890    -5.6570    -6.2790 h1         1 2OW       0.048700
     36 H9          -2.4300    -2.9920    -4.3190 h1         1 2OW       0.066200
     37 H10         -2.3320    -3.4890    -2.6180 h1         1 2OW       0.066200
     38 H11         -2.6740    -1.0750    -2.7030 h1         1 2OW       0.047950
     39 H12         -1.3080    -0.8880    -3.8180 h1         1 2OW       0.047950
     40 H14         -1.7660     0.3400    -1.1390 h1         1 2OW       0.047700
     41 H15         -0.2580     0.6520    -2.0100 h1         1 2OW       0.047700
     42 H16         -1.7750    -0.0030     1.1950 ha         1 2OW       0.141000
     43 H17         -0.5500     0.0090     3.3330 ha         1 2OW       0.141000
     44 H18          3.9820    -0.5220     0.5250 hn         1 2OW       0.326500
     45 H19          5.9830     0.4220     1.3170 hn         1 2OW       0.322500
     46 H20          8.6180     4.1960     6.0510 hc         1 2OW       0.052033
     47 H21          9.3410     2.6220     6.4110 hc         1 2OW       0.052033
     48 H22          7.8410     3.1100     7.2120 hc         1 2OW       0.052033
     49 H23          4.6760     2.8790     3.5360 ha         1 2OW       0.175000
     50 H24          0.2540    -3.8970    -1.7330 h1         1 2OW       0.066200
     51 H25          1.4840    -3.6110    -2.9800 h1         1 2OW       0.066200
     52 C23          8.4080     3.1600     6.2900 c3         1 2OW      -0.140400
     53 C03         -0.2130    -4.1280    -4.7920 c          1 2OW       0.753100
@<TRIPOS>BOND
     1    52     4 1   
     2     5     4 ar  
     3     5    25 ar  
     4     4    24 ar  
     5    25    23 ar  
     6    24     3 ar  
     7    23     3 ar  
     8    23    22 1   
     9    22    20 1   
    10    20    19 1   
    11    20    21 2   
    12    19    18 1   
    13    18     2 ar  
    14    18     6 ar  
    15    26     6 1   
    16     2    17 ar  
    17     6     1 ar  
    18    17    16 ar  
    19     1    16 ar  
    20     1    15 1   
    21    15    14 1   
    22    13    14 1   
    23    13    12 1   
    24    14     7 1   
    25     7    27 1   
    26    12    11 1   
    27    27    11 1   
    28    11    53 1   
    29     9    53 1   
    30     9     8 1   
    31    53    10 2   
    32     2    28 1   
    33     3    29 1   
    34     5    30 1   
    35     7    31 1   
    36     7    32 1   
    37     8    33 1   
    38     8    34 1   
    39     8    35 1   
    40    12    36 1   
    41    12    37 1   
    42    13    38 1   
    43    13    39 1   
    44    15    40 1   
    45    15    41 1   
    46    16    42 1   
    47    17    43 1   
    48    19    44 1   
    49    22    45 1   
    50    52    46 1   
    51    52    47 1   
    52    52    48 1   
    53    25    49 1   
    54    27    50 1   
    55    27    51 1   
@<TRIPOS>SUBSTRUCTURE
     1 2OW         1 TEMP              0 ****  ****    0 ROOT
