@<TRIPOS>MOLECULE
2OX
   35    37     1     0     0
SMALL
bcc


@<TRIPOS>ATOM
      1 CAO          0.0000     0.0000     0.0000 ca         1 2OX      -0.082500
      2 CAP          1.3810     0.0000     0.0000 ca         1 2OX      -0.088000
      3 CAQ          2.0740     0.0000     1.1960 ca         1 2OX      -0.082000
      4 CAR          1.3870    -0.0010     2.3960 ca         1 2OX      -0.088000
      5 CAS          0.0060    -0.0020     2.4030 ca         1 2OX      -0.082500
      6 CAN         -0.6920     0.0050     1.2040 ca         1 2OX      -0.190200
      7 NAK         -2.0940     0.0040     1.2070 na         1 2OX       0.733300
      8 CAJ         -2.8910     0.0090     2.3100 cc         1 2OX      -0.445600
      9 NAL         -2.8530     0.0050     0.1660 nc         1 2OX      -0.386800
     10 NAM         -4.0900     0.0040     0.5170 nd         1 2OX      -0.322000
     11 CAF         -4.1650     0.0060     1.8530 cd         1 2OX       0.245600
     12 CAD         -5.4220     0.0050     2.6850 c3         1 2OX       0.115200
     13 NAE         -6.1790    -1.2370     2.4480 n7         1 2OX      -0.569200
     14 CAA         -7.4990    -0.8840     1.8820 c3         1 2OX       0.108500
     15 CAG         -8.5800    -1.8180     2.4280 c3         1 2OX       0.016900
     16 CAB         -7.7530     0.5710     2.3510 c3         1 2OX       0.167100
     17 OAH         -8.2420     0.5980     3.6930 oh         1 2OX      -0.549800
     18 CAC         -6.3290     1.1810     2.2660 c3         1 2OX       0.144100
     19 OAI         -6.1930     2.2740     3.1770 oh         1 2OX      -0.564800
     20 H1          -0.5420     0.0030    -0.9380 ha         1 2OX       0.126500
     21 H2           1.9220    -0.0020    -0.9380 ha         1 2OX       0.111500
     22 H3           3.1570     0.0000     1.1940 ha         1 2OX       0.108000
     23 H4           1.9320    -0.0030     3.3320 ha         1 2OX       0.111500
     24 H5          -0.5320    -0.0000     3.3440 ha         1 2OX       0.126500
     25 H6          -2.5700     0.0110     3.3450 h4         1 2OX       0.170000
     26 H7          -5.1740     0.0890     3.7360 h1         1 2OX       0.061700
     27 H8          -5.6810    -1.8130     1.7990 hn         1 2OX       0.262800
     28 H10         -7.4660    -0.9280     0.8000 h1         1 2OX       0.019700
     29 H11         -8.4990    -2.7850     1.9470 hc         1 2OX       0.008033
     30 H12         -8.4500    -1.9350     3.4970 hc         1 2OX       0.008033
     31 H13         -9.5570    -1.3950     2.2270 hc         1 2OX       0.008033
     32 H14         -8.4300     1.0790     1.6750 h1         1 2OX       0.003700
     33 H15         -8.9300     1.2390     3.7640 ho         1 2OX       0.384000
     34 H16         -6.1080     1.4900     1.2520 h1         1 2OX       0.027700
     35 H17         -6.1170     3.0790     2.6920 ho         1 2OX       0.383000
@<TRIPOS>BOND
     1     1     2 ar  
     2     1     6 ar  
     3     1    20 1   
     4     2     3 ar  
     5     2    21 1   
     6     3     4 ar  
     7     3    22 1   
     8     4     5 ar  
     9     4    23 1   
    10     5     6 ar  
    11     5    24 1   
    12     6     7 1   
    13     7     8 1   
    14     7     9 1   
    15     8    11 2   
    16     8    25 1   
    17     9    10 2   
    18    10    11 1   
    19    11    12 1   
    20    12    13 1   
    21    12    18 1   
    22    12    26 1   
    23    13    14 1   
    24    13    27 1   
    25    14    15 1   
    26    14    16 1   
    27    14    28 1   
    28    15    29 1   
    29    15    30 1   
    30    15    31 1   
    31    16    17 1   
    32    16    18 1   
    33    16    32 1   
    34    17    33 1   
    35    18    19 1   
    36    18    34 1   
    37    19    35 1   
@<TRIPOS>SUBSTRUCTURE
     1 2OX         1 TEMP              0 ****  ****    0 ROOT
