@<TRIPOS>MOLECULE
2OZ
   38    39     1     0     0
SMALL
bcc


@<TRIPOS>ATOM
      1 CAA         0.4580    0.1130    0.1030 ca        1 2OZ     -0.124000
      2 CAE         2.2350   -0.6090    1.5830 ca        1 2OZ      0.110900
      3 CAF         1.8110    0.0370    0.4100 ca        1 2OZ     -0.149500
      4 FAG         3.5550   -0.6820    1.8810 f         1 2OZ     -0.139900
      5 CAD         1.2860   -1.1810    2.4490 ca        1 2OZ     -0.149500
      6 CAC        -0.0640   -1.1020    2.1450 ca        1 2OZ     -0.124000
      7 CAB        -0.5040   -0.4520    0.9650 ca        1 2OZ      0.039600
      8 NAH        -1.8920   -0.4420    0.7080 n         1 2OZ     -0.423100
      9 CAI        -2.5820    0.4760   -0.0610 c         1 2OZ      0.579400
     10 SAU        -1.9040    1.8330   -0.6430 s         1 2OZ     -0.552400
     11 NAJ        -3.9490    0.2270   -0.3450 n         1 2OZ     -0.420800
     12 CAO        -4.8130    1.3820   -0.1620 c3        1 2OZ      0.040000
     13 CAN        -6.1330    1.2840   -0.9370 c3        1 2OZ      0.101100
     14 OAS        -6.9810    2.3700   -0.5960 oh        1 2OZ     -0.606800
     15 CAM        -6.8640    0.0080   -0.5090 c3        1 2OZ      0.109100
     16 OAR        -8.0650   -0.1720   -1.2420 oh        1 2OZ     -0.610800
     17 CAL        -5.9710   -1.1960   -0.8340 c3        1 2OZ      0.149100
     18 OAQ        -5.7940   -1.3390   -2.2330 oh        1 2OZ     -0.598800
     19 CAK        -4.5670   -1.0810   -0.1740 c3        1 2OZ      0.090700
     20 CAP        -3.7290   -2.2560   -0.7430 c3        1 2OZ      0.118400
     21 OAT        -3.2460   -2.9760    0.3850 oh        1 2OZ     -0.630800
     22 H1          0.1440    0.6430   -0.8160 ha        1 2OZ      0.162000
     23 H2          2.5550    0.4860   -0.2650 ha        1 2OZ      0.152000
     24 H3          1.6210   -1.6840    3.3680 ha        1 2OZ      0.152000
     25 H4         -0.7910   -1.5550    2.8380 ha        1 2OZ      0.162000
     26 H5         -2.3840   -1.2130    1.1200 hn        1 2OZ      0.338500
     27 H6         -4.2590    2.3040   -0.5110 h1        1 2OZ      0.075700
     28 H7         -5.0600    1.5090    0.9340 h1        1 2OZ      0.075700
     29 H8         -5.9510    1.2670   -2.0480 h1        1 2OZ      0.077700
     30 H9         -6.5360    3.1760   -0.8850 ho        1 2OZ      0.418000
     31 H10        -7.0980    0.0430    0.5910 h1        1 2OZ      0.061700
     32 H11        -8.5530    0.6600   -1.1820 ho        1 2OZ      0.432000
     33 H12        -6.4580   -2.1300   -0.4300 h1        1 2OZ      0.060700
     34 H13        -6.6670   -1.2370   -2.6390 ho        1 2OZ      0.429000
     35 H14        -4.7340   -1.2770    0.9330 h1        1 2OZ      0.056700
     36 H15        -4.3790   -2.9330   -1.3610 h1        1 2OZ      0.060200
     37 H16        -2.8800   -1.9060   -1.3840 h1        1 2OZ      0.060200
     38 H17        -2.7130   -3.7030    0.0450 ho        1 2OZ      0.417000
@<TRIPOS>BOND
     1    1    3 ar  
     2    1    7 ar  
     3    1   22 1   
     4    2    3 ar  
     5    2    4 1   
     6    2    5 ar  
     7    3   23 1   
     8    5    6 ar  
     9    5   24 1   
    10    6    7 ar  
    11    6   25 1   
    12    7    8 1   
    13    8    9 1   
    14    8   26 1   
    15    9   10 2   
    16    9   11 1   
    17   11   12 1   
    18   11   19 1   
    19   12   13 1   
    20   12   27 1   
    21   12   28 1   
    22   13   14 1   
    23   13   15 1   
    24   13   29 1   
    25   14   30 1   
    26   15   16 1   
    27   15   17 1   
    28   15   31 1   
    29   16   32 1   
    30   17   18 1   
    31   17   19 1   
    32   17   33 1   
    33   18   34 1   
    34   19   20 1   
    35   19   35 1   
    36   20   21 1   
    37   20   36 1   
    38   20   37 1   
    39   21   38 1   
@<TRIPOS>SUBSTRUCTURE
     1 2OZ         1 TEMP              0 ****  ****    0 ROOT
