@<TRIPOS>MOLECULE
molecule
   38    39     1     0     0
SMALL
bcc


@<TRIPOS>ATOM
      1 CAA          0.0000     0.0000     0.0000 ca         1 2OZ      -0.099000
      2 CAE          2.0740     0.0000     1.1990 ca         1 2OZ       0.128900
      3 CAF          1.3810     0.0000     0.0000 ca         1 2OZ      -0.161500
      4 FAG          3.4250     0.0050     1.1970 f          1 2OZ      -0.142900
      5 CAD          1.3840    -0.0000     2.4000 ca         1 2OZ      -0.161500
      6 CAC          0.0030    -0.0050     2.4040 ca         1 2OZ      -0.099000
      7 CAB         -0.6940     0.0010     1.2030 ca         1 2OZ       0.031600
      8 NAH         -2.0940     0.0070     1.2050 ns         1 2OZ      -0.429100
      9 CAI         -2.7730    -0.7510     0.3210 cs         1 2OZ       0.570400
     10 SAU         -1.9290    -1.8300    -0.7070 s          1 2OZ      -0.547400
     11 NAJ         -4.1160    -0.6600     0.2470 n          1 2OZ      -0.417800
     12 CAO         -4.8390     0.3770     0.9960 c3         1 2OZ       0.074000
     13 CAN         -5.7260     1.1590     0.0250 c3         1 2OZ       0.129100
     14 OAS         -6.5300     2.0880     0.7550 oh         1 2OZ      -0.601800
     15 CAM         -6.6310     0.1830    -0.7320 c3         1 2OZ       0.125100
     16 OAR         -7.4840     0.9140    -1.6170 oh         1 2OZ      -0.593800
     17 CAL         -5.7710    -0.7900    -1.5410 c3         1 2OZ       0.123100
     18 OAQ         -4.9510    -0.0580    -2.4530 oh         1 2OZ      -0.585800
     19 CAK         -4.8830    -1.5920    -0.5910 c3         1 2OZ       0.110700
     20 CAP         -3.9240    -2.4670    -1.4010 c3         1 2OZ       0.112400
     21 OAT         -3.2700    -3.3890    -0.5280 oh         1 2OZ      -0.553800
     22 H1          -0.5420     0.0020    -0.9380 ha         1 2OZ       0.152000
     23 H2           1.9220    -0.0000    -0.9380 ha         1 2OZ       0.148000
     24 H3           1.9280    -0.0020     3.3370 ha         1 2OZ       0.148000
     25 H4          -0.5360    -0.0050     3.3430 ha         1 2OZ       0.152000
     26 H5          -2.5890     0.5200     1.9080 hn         1 2OZ       0.318500
     27 H6          -4.1280     1.0500     1.4600 h1         1 2OZ       0.059200
     28 H7          -5.4550    -0.0890     1.7560 h1         1 2OZ       0.059200
     29 H8          -5.1020     1.6920    -0.6820 h1         1 2OZ       0.075700
     30 H9          -6.2300     2.9650     0.5840 ho         1 2OZ       0.413000
     31 H10         -7.2320    -0.3740    -0.0220 h1         1 2OZ       0.047700
     32 H11         -8.3810     0.6620    -1.4680 ho         1 2OZ       0.407000
     33 H12         -6.4140    -1.4670    -2.0890 h1         1 2OZ       0.050700
     34 H13         -5.2860    -0.1590    -3.3280 ho         1 2OZ       0.411000
     35 H14         -5.5040    -2.2160     0.0410 h1         1 2OZ       0.063700
     36 H15         -3.1840    -1.8400    -1.8840 h1         1 2OZ       0.069700
     37 H16         -4.4810    -3.0130    -2.1520 h1         1 2OZ       0.069700
     38 H17         -3.3370    -4.2600    -0.8830 ho         1 2OZ       0.342000
@<TRIPOS>BOND
     1    10     9 2
     2    21    20 1
     3     3     1 ar
     4     3     2 ar
     5    20    19 1
     6     4     2 1
     7    18    17 1
     8    19    17 1
     9    19    11 1
    10     1     7 ar
    11     2     5 ar
    12     9    11 1
    13     9     8 1
    14    17    15 1
    15    11    12 1
    16     7     8 1
    17     7     6 ar
    18     5     6 ar
    19    15    16 1
    20    15    13 1
    21    12    13 1
    22    14    13 1
    23     1    22 1
    24     3    23 1
    25     5    24 1
    26     6    25 1
    27     8    26 1
    28    12    27 1
    29    12    28 1
    30    13    29 1
    31    14    30 1
    32    15    31 1
    33    16    32 1
    34    17    33 1
    35    18    34 1
    36    19    35 1
    37    20    36 1
    38    20    37 1
    39    21    38 1
@<TRIPOS>SUBSTRUCTURE
     1 2OZ         1 TEMP              0 ****  ****    0 ROOT
