@<TRIPOS>MOLECULE
2P1
   47    50     1     0     0
SMALL
bcc


@<TRIPOS>ATOM
      1 C1           0.0000     0.0000     0.0000 ca         1 2P1      -0.136000
      2 C2           1.3830     0.0000     0.0000 ca         1 2P1       0.005000
      3 C3           2.0750     0.0000     1.1970 ca         1 2P1      -0.242300
      4 C4           1.3840     0.0010     2.3940 ca         1 2P1       0.063000
      5 C5           0.0020     0.0010     2.3950 ca         1 2P1      -0.154500
      6 C6          -0.6900     0.0060     1.1980 ca         1 2P1       0.034000
      7 S7          -0.8790     0.0010     3.9210 sy         1 2P1       0.964600
      8 O8          -2.1620    -0.5430     3.6450 o          1 2P1      -0.584800
      9 O9           0.0040    -0.5440     4.8930 o          1 2P1      -0.584800
     10 C10         -1.1380     1.6850     4.3730 ca         1 2P1      -0.140500
     11 C11         -0.2010     2.3450     5.1440 ca         1 2P1       0.001500
     12 C12         -0.4020     3.6680     5.4940 ca         1 2P1      -0.114000
     13 C13         -1.5410     4.3290     5.0730 ca         1 2P1      -0.074300
     14 C14         -2.4790     3.6670     4.3010 ca         1 2P1      -0.114000
     15 C15         -2.2780     2.3450     3.9530 ca         1 2P1       0.001500
     16 C16         -1.7620     5.7690     5.4560 c3         1 2P1       0.106300
     17 N17         -1.1750     6.6410     4.4350 ns         1 2P1      -0.203900
     18 C18         -1.2510     7.9800     4.5670 c          1 2P1       0.612700
     19 O19         -1.8060     8.4640     5.5340 o          1 2P1      -0.656100
     20 C20         -0.6600     8.8570     3.5390 ca         1 2P1      -0.339900
     21 C21         -0.7400    10.2370     3.6770 ca         1 2P1       0.100000
     22 C22         -0.1630    11.0340     2.6720 ca         1 2P1      -0.336300
     23 C23         -0.0380    12.3960     2.4560 cc         1 2P1      -0.248100
     24 N24          0.6230    12.5680     1.3060 na         1 2P1       0.574800
     25 N25          0.9430    11.3270     0.7480 nc         1 2P1      -0.425400
     26 C27          0.4920    10.3680     1.5330 ca         1 2P1       0.347300
     27 N28          0.5210     9.0240     1.4820 nb         1 2P1      -0.554000
     28 C29         -0.0130     8.2940     2.4230 ca         1 2P1       0.450200
     29 C30          3.5810    -0.0010     1.1950 c3         1 2P1       0.643200
     30 F31          4.0470    -0.0010    -0.1240 f          1 2P1      -0.205633
     31 F32          4.0490     1.1420     1.8550 f          1 2P1      -0.205633
     32 F33          4.0480    -1.1430     1.8550 f          1 2P1      -0.205633
     33 H1          -0.5420     0.0020    -0.9380 ha         1 2P1       0.117000
     34 H2           1.9240    -0.0030    -0.9380 ha         1 2P1       0.122000
     35 H3           1.9260    -0.0010     3.3320 ha         1 2P1       0.133000
     36 H4          -1.7740     0.0060     1.1980 ha         1 2P1       0.125000
     37 H5           0.6910     1.8270     5.4740 ha         1 2P1       0.125000
     38 H6           0.3320     4.1860     6.0980 ha         1 2P1       0.116500
     39 H7          -3.3720     4.1850     3.9720 ha         1 2P1       0.116500
     40 H8          -3.0120     1.8260     3.3480 ha         1 2P1       0.125000
     41 H9          -1.2900     5.9650     6.4120 h1         1 2P1       0.033200
     42 H10         -2.8240     5.9650     5.5310 h1         1 2P1       0.033200
     43 H11         -0.7390     6.2420     3.6270 hn         1 2P1       0.183500
     44 H12         -1.4460    10.6720     4.3740 ha         1 2P1       0.126000
     45 H13         -0.4100    13.1810     3.1020 h4         1 2P1       0.152000
     46 H14          0.8540    13.4550     0.9040 hn         1 2P1       0.144700
     47 H15          0.0450     7.2150     2.3430 h4         1 2P1      -0.028900
@<TRIPOS>BOND
     1     1     2 ar  
     2     1     6 ar  
     3     1    33 1   
     4     2     3 ar  
     5     2    34 1   
     6     3     4 ar  
     7     3    29 1   
     8     4     5 ar  
     9     4    35 1   
    10     5     6 ar  
    11     5     7 1   
    12     6    36 1   
    13     7     8 2   
    14     7     9 2   
    15     7    10 1   
    16    10    11 ar  
    17    10    15 ar  
    18    11    12 ar  
    19    11    37 1   
    20    12    13 ar  
    21    12    38 1   
    22    13    14 ar  
    23    13    16 1   
    24    14    15 ar  
    25    14    39 1   
    26    15    40 1   
    27    16    17 1   
    28    16    41 1   
    29    16    42 1   
    30    17    18 1   
    31    17    43 1   
    32    18    19 2   
    33    18    20 1   
    34    20    21 ar  
    35    20    28 ar  
    36    21    22 ar  
    37    21    44 1   
    38    22    23 2   
    39    22    26 ar  
    40    23    24 1   
    41    23    45 1   
    42    24    25 1   
    43    24    46 1   
    44    25    26 2   
    45    26    27 ar  
    46    27    28 ar  
    47    28    47 1   
    48    29    30 1   
    49    29    31 1   
    50    29    32 1   
@<TRIPOS>SUBSTRUCTURE
     1 2P1         1 TEMP              0 ****  ****    0 ROOT
