@<TRIPOS>MOLECULE
2P2
   69    71     1     0     0
SMALL
bcc


@<TRIPOS>ATOM
      1 C23          0.0000     0.0000     0.0000 c3         1 2P2      -0.107400
      2 C24          1.5300     0.0000     0.0000 c3         1 2P2      -0.013400
      3 C25          2.0400     0.0000     1.4430 c3         1 2P2       0.026900
      4 C26          3.5470    -0.0010     1.4430 ca         1 2P2      -0.086300
      5 C27          4.2380     1.1970     1.4430 ca         1 2P2      -0.097000
      6 C31          4.2380    -1.1980     1.4490 ca         1 2P2      -0.097000
      7 C28          5.6200     1.1960     1.4430 ca         1 2P2      -0.098500
      8 C20          5.6200    -1.1980     1.4500 ca         1 2P2      -0.098500
      9 C29          6.3110    -0.0010     1.4430 ca         1 2P2      -0.106000
     10 C21         -0.5020    -0.0010    -1.4210 c          1 2P2       0.604100
     11 O22          0.2860    -0.0010    -2.3420 o          1 2P2      -0.633100
     12 C10         -3.1630    -1.5710    -0.3480 c          1 2P2       0.586100
     13 O11         -2.4290    -2.4320    -0.7870 o          1 2P2      -0.633100
     14 C12         -2.8900    -0.1200    -0.6530 c3         1 2P2      -0.048300
     15 C13         -4.1330     0.5370    -1.3010 c3         1 2P2      -0.054400
     16 C14         -3.9810     0.0990    -2.7820 c3         1 2P2      -0.050400
     17 C15         -2.4520     0.1210    -2.9930 c3         1 2P2       0.042700
     18 C16         -2.0320    -1.0570    -3.8750 c3         1 2P2      -0.071000
     19 C17         -2.8910    -1.0760    -5.1420 c3         1 2P2      -0.032433
     20 C18         -0.5600    -0.9060    -4.2600 c3         1 2P2      -0.032433
     21 C19         -2.2280    -2.3650    -3.1070 c3         1 2P2      -0.032433
     22 N20         -1.8280    -0.0000    -1.6680 n          1 2P2      -0.123800
     23 C1          -4.9270    -4.0910    -0.4760 c3         1 2P2       0.161100
     24 O2          -5.6060    -3.2570    -1.4170 oh         1 2P2      -0.586800
     25 C3          -3.6270    -4.6080    -1.0960 c3         1 2P2       0.105400
     26 O4          -3.9320    -5.5660    -2.1110 oh         1 2P2      -0.591800
     27 C5          -4.6040    -3.2830     0.7830 c3         1 2P2       0.021700
     28 C6          -5.8580    -3.1820     1.6770 c3         1 2P2      -0.032400
     29 C7          -5.7790    -1.7330     2.2250 c3         1 2P2      -0.031400
     30 C8          -5.1880    -0.9730     1.0100 c3         1 2P2       0.035000
     31 N9          -4.2220    -1.9120     0.4120 n          1 2P2      -0.124800
     32 H23         -0.3610    -0.8840     0.5110 hc         1 2P2       0.028200
     33 H23A        -0.3610     0.8850     0.5100 hc         1 2P2       0.028200
     34 H24          1.8910    -0.8850    -0.5110 hc         1 2P2       0.033700
     35 H24A         1.8910     0.8850    -0.5110 hc         1 2P2       0.033700
     36 H25          1.6790     0.8850     1.9530 hc         1 2P2       0.013700
     37 H25A         1.6780    -0.8840     1.9540 hc         1 2P2       0.013700
     38 H27          3.6970     2.1350     1.4420 ha         1 2P2       0.104500
     39 H31          3.6960    -2.1360     1.4540 ha         1 2P2       0.104500
     40 H28          6.1620     2.1340     1.4400 ha         1 2P2       0.101000
     41 H20          6.1610    -2.1360     1.4520 ha         1 2P2       0.101000
     42 H29          7.3950    -0.0010     1.4440 ha         1 2P2       0.101000
     43 H12         -2.6100     0.4140     0.2470 h1         1 2P2       0.044700
     44 H13         -5.0460     0.1400    -0.8740 hc         1 2P2       0.035700
     45 H13A        -4.0900     1.6160    -1.2120 hc         1 2P2       0.035700
     46 H14         -4.4670     0.8080    -3.4410 hc         1 2P2       0.041700
     47 H14A        -4.3720    -0.9010    -2.9260 hc         1 2P2       0.041700
     48 H15         -2.1580     1.0560    -3.4530 h1         1 2P2       0.036700
     49 H17         -2.9390    -0.0780    -5.5610 hc         1 2P2       0.021256
     50 H17A        -2.4500    -1.7510    -5.8660 hc         1 2P2       0.021256
     51 H17B        -3.8900    -1.4130    -4.8960 hc         1 2P2       0.021256
     52 H18         -0.2910     0.1430    -4.2580 hc         1 2P2       0.021256
     53 H18A        -0.4010    -1.3180    -5.2500 hc         1 2P2       0.021256
     54 H18B         0.0570    -1.4380    -3.5450 hc         1 2P2       0.021256
     55 H19         -2.0860    -3.2030    -3.7790 hc         1 2P2       0.021256
     56 H19A        -3.2310    -2.3970    -2.6980 hc         1 2P2       0.021256
     57 H19B        -1.5070    -2.4220    -2.3010 hc         1 2P2       0.021256
     58 HO2         -6.2860    -3.7530    -1.8430 ho         1 2P2       0.398000
     59 H3          -3.0810    -3.7810    -1.5320 h1         1 2P2       0.056200
     60 H3A         -3.0220    -5.0760    -0.3280 h1         1 2P2       0.056200
     61 HO4         -3.5080    -6.3840    -1.9090 ho         1 2P2       0.383000
     62 H5          -3.7980    -3.7530     1.3330 h1         1 2P2       0.042700
     63 H6          -6.7580    -3.3190     1.0890 hc         1 2P2       0.028200
     64 H6A         -5.8080    -3.8990     2.4870 hc         1 2P2       0.028200
     65 H7          -6.7660    -1.3590     2.4700 hc         1 2P2       0.026200
     66 H7A         -5.1120    -1.6780     3.0760 hc         1 2P2       0.026200
     67 H8          -5.9700    -0.7360     0.2990 h1         1 2P2       0.026200
     68 H8A         -4.6830    -0.0740     1.3390 h1         1 2P2       0.026200
     69 H1          -5.5600    -4.9300    -0.2130 h1         1 2P2       0.007700
@<TRIPOS>BOND
     1     1     2 1   
     2     1    10 1   
     3     1    32 1   
     4     1    33 1   
     5     2     3 1   
     6     2    34 1   
     7     2    35 1   
     8     3     4 1   
     9     3    36 1   
    10     3    37 1   
    11     4     5 ar  
    12     4     6 ar  
    13     5     7 ar  
    14     5    38 1   
    15     6     8 ar  
    16     6    39 1   
    17     7     9 ar  
    18     7    40 1   
    19     8     9 ar  
    20     8    41 1   
    21     9    42 1   
    22    10    11 2   
    23    10    22 1   
    24    12    13 2   
    25    12    14 1   
    26    12    31 1   
    27    14    15 1   
    28    14    22 1   
    29    14    43 1   
    30    15    16 1   
    31    15    44 1   
    32    15    45 1   
    33    16    17 1   
    34    16    46 1   
    35    16    47 1   
    36    17    18 1   
    37    17    22 1   
    38    17    48 1   
    39    18    19 1   
    40    18    20 1   
    41    18    21 1   
    42    19    49 1   
    43    19    50 1   
    44    19    51 1   
    45    20    52 1   
    46    20    53 1   
    47    20    54 1   
    48    21    55 1   
    49    21    56 1   
    50    21    57 1   
    51    23    24 1   
    52    23    25 1   
    53    23    27 1   
    54    23    69 1   
    55    24    58 1   
    56    25    26 1   
    57    25    59 1   
    58    25    60 1   
    59    26    61 1   
    60    27    28 1   
    61    27    31 1   
    62    27    62 1   
    63    28    29 1   
    64    28    63 1   
    65    28    64 1   
    66    29    30 1   
    67    29    65 1   
    68    29    66 1   
    69    30    31 1   
    70    30    67 1   
    71    30    68 1   
@<TRIPOS>SUBSTRUCTURE
     1 2P2         1 TEMP              0 ****  ****    0 ROOT
