@<TRIPOS>MOLECULE
2P3
   25    27     1     0     0
SMALL
bcc


@<TRIPOS>ATOM
      1 C2           0.0000     0.0000     0.0000 cs         1 2P3       0.167400
      2 N3           1.3480     0.0000     0.0000 ns         1 2P3       0.138600
      3 S1          -1.0140    -0.0060    -1.3790 s          1 2P3      -0.663400
      4 C4           1.7800     0.0000     1.3040 cc         1 2P3       0.202900
      5 N5           0.7500     0.0010     2.0860 n2         1 2P3      -0.597300
      6 N6          -0.4030     0.0010     1.2890 ns         1 2P3       0.258100
      7 C7           3.2200    -0.0010     1.7500 c3         1 2P3       0.141800
      8 C8           3.3000     0.3590     3.2400 c3         1 2P3       0.182400
      9 O9           4.6760     0.3370     3.6330 os         1 2P3      -0.295900
     10 C10          5.4120    -0.7330     3.2250 ca         1 2P3       0.070100
     11 C11          4.9640    -1.5530     2.1950 ca         1 2P3       0.061100
     12 O12          3.7790    -1.3060     1.5730 os         1 2P3      -0.298900
     13 C13          5.7320    -2.6360     1.7930 ca         1 2P3      -0.096000
     14 C14          6.9370    -2.9010     2.4170 ca         1 2P3      -0.100000
     15 C15          7.3810    -2.0870     3.4420 ca         1 2P3      -0.094000
     16 C16          6.6210    -1.0050     3.8470 ca         1 2P3      -0.099000
     17 H1           1.9340    -0.0010    -0.8110 hn         1 2P3       0.213500
     18 H2          -1.3490     0.0020     1.6140 hn         1 2P3       0.233500
     19 H3           3.7870     0.7180     1.1720 h1         1 2P3       0.038700
     20 H4           2.7570    -0.3840     3.8120 h1         1 2P3       0.041700
     21 H5           2.9080     1.3580     3.3830 h1         1 2P3       0.041700
     22 H6           5.3870    -3.2750     0.9890 ha         1 2P3       0.116000
     23 H7           7.5350    -3.7480     2.1020 ha         1 2P3       0.109000
     24 H8           8.3250    -2.2970     3.9290 ha         1 2P3       0.108000
     25 H9           6.9720    -0.3690     4.6510 ha         1 2P3       0.118000
@<TRIPOS>BOND
     1     1     2 1   
     2     1     3 2   
     3     1     6 1   
     4     2     4 1   
     5     2    17 1   
     6     4     5 2   
     7     4     7 1   
     8     5     6 1   
     9     6    18 1   
    10     7     8 1   
    11     7    12 1   
    12     7    19 1   
    13     8     9 1   
    14     8    20 1   
    15     8    21 1   
    16     9    10 1   
    17    10    11 ar  
    18    10    16 ar  
    19    11    12 1   
    20    11    13 ar  
    21    13    14 ar  
    22    13    22 1   
    23    14    15 ar  
    24    14    23 1   
    25    15    16 ar  
    26    15    24 1   
    27    16    25 1   
@<TRIPOS>SUBSTRUCTURE
     1 2P3         1 TEMP              0 ****  ****    0 ROOT
