@<TRIPOS>MOLECULE
molecule
   52    54     1     0     0
SMALL
bcc


@<TRIPOS>ATOM
      1 C10          0.0000     0.0000     0.0000 c          1 2P4       0.667100
      2 O11         -0.6060     1.0400     0.1410 o          1 2P4      -0.600100
      3 C12          1.5070     0.0000     0.0000 c3         1 2P4      -0.108500
      4 C13          2.0440     0.0000     1.4490 c3         1 2P4      -0.066400
      5 C14          3.3000     0.8930     1.3180 c3         1 2P4      -0.065200
      6 C15          3.0250     1.7730     0.1210 c2         1 2P4      -0.082200
      7 C16          2.0330     1.2800    -0.6080 ce         1 2P4      -0.191400
      8 C1          -2.6600    -0.8910     1.2680 c3         1 2P4       0.134100
      9 O2          -2.0130    -1.6670     2.2810 oh         1 2P4      -0.605800
     10 C3          -2.3660     0.5910     1.4960 c3         1 2P4       0.108400
     11 O4          -3.1010     1.0540     2.6320 oh         1 2P4      -0.635800
     12 C5          -2.1350    -1.3100    -0.1070 c3         1 2P4       0.114700
     13 C6          -2.4480    -2.8010    -0.3570 c3         1 2P4      -0.089400
     14 C7          -1.1770    -3.3040    -1.0900 c3         1 2P4      -0.095400
     15 C8          -0.0670    -2.4790    -0.3920 c3         1 2P4       0.096000
     16 N9          -0.6730    -1.1570    -0.1530 n          1 2P4      -0.482800
     17 C17          1.5150     1.8940    -1.8400 c          1 2P4       0.691300
     18 O18          1.9240     2.9830    -2.1950 o          1 2P4      -0.614100
     19 N19          0.5880     1.2500    -2.5760 ns         1 2P4      -0.575900
     20 C20          0.1450     1.8150    -3.8530 c3         1 2P4       0.162300
     21 C21         -0.9730     0.9730    -4.4140 ca         1 2P4      -0.114300
     22 C22         -2.2880     1.3230    -4.1770 ca         1 2P4      -0.112000
     23 C23         -3.3130     0.5520    -4.6920 ca         1 2P4      -0.133500
     24 C24         -3.0210    -0.5710    -5.4430 ca         1 2P4      -0.123000
     25 C25         -1.7060    -0.9220    -5.6810 ca         1 2P4      -0.133500
     26 C26         -0.6810    -0.1470    -5.1710 ca         1 2P4      -0.112000
     27 H12          1.8900    -0.8570    -0.5410 hc         1 2P4       0.066700
     28 H13          1.3250     0.4430     2.1260 hc         1 2P4       0.062700
     29 H13A         2.3150    -1.0020     1.7590 hc         1 2P4       0.062700
     30 H14          3.4250     1.4980     2.2080 hc         1 2P4       0.060200
     31 H14A         4.1780     0.2830     1.1420 hc         1 2P4       0.060200
     32 H15          3.6400     2.6080    -0.1940 ha         1 2P4       0.164000
     33 H1          -3.7290    -1.0590     1.3120 h1         1 2P4       0.043700
     34 HO2         -2.6170    -1.8270     2.9880 ho         1 2P4       0.409000
     35 H3          -1.3060     0.7260     1.6730 h1         1 2P4       0.062700
     36 H3A         -2.6610     1.1570     0.6210 h1         1 2P4       0.062700
     37 HO4         -3.1680     1.9940     2.6010 ho         1 2P4       0.406000
     38 H5          -2.5910    -0.7050    -0.8810 h1         1 2P4       0.068700
     39 H6          -2.5810    -3.3250     0.5820 hc         1 2P4       0.061700
     40 H6A         -3.3210    -2.9060    -0.9900 hc         1 2P4       0.061700
     41 H7          -1.2240    -3.0710    -2.1470 hc         1 2P4       0.057200
     42 H7A         -1.0310    -4.3650    -0.9250 hc         1 2P4       0.057200
     43 H8           0.2090    -2.9410     0.5480 h1         1 2P4       0.050200
     44 H8A          0.7950    -2.3850    -1.0410 h1         1 2P4       0.050200
     45 HN19         0.2420     0.3600    -2.2760 hn         1 2P4       0.316500
     46 H20          0.9740     1.8260    -4.5510 h1         1 2P4       0.059700
     47 H20A        -0.2090     2.8270    -3.6970 h1         1 2P4       0.059700
     48 H22         -2.5170     2.2030    -3.5880 ha         1 2P4       0.136500
     49 H23         -4.3440     0.8260    -4.5050 ha         1 2P4       0.131000
     50 H24         -3.8240    -1.1780    -5.8450 ha         1 2P4       0.130000
     51 H25         -1.4780    -1.8000    -6.2720 ha         1 2P4       0.131000
     52 H26          0.3500    -0.4210    -5.3570 ha         1 2P4       0.136500
@<TRIPOS>BOND
     1     8     9 1   
     2     8    10 1   
     3     8    12 1   
     4    10    11 1   
     5    12    13 1   
     6    12    16 1   
     7    13    14 1   
     8    14    15 1   
     9    15    16 1   
    10    16     1 1   
    11     1     2 2   
    12     1     3 1   
    13     3     4 1   
    14     3     7 1   
    15     4     5 1   
    16     5     6 1   
    17     6     7 2   
    18     7    17 1   
    19    17    18 2   
    20    17    19 1   
    21    19    20 1   
    22    20    21 1   
    23    21    22 ar  
    24    21    26 ar  
    25    22    23 ar  
    26    23    24 ar  
    27    24    25 ar  
    28    25    26 ar  
    29     8    33 1   
    30     9    34 1   
    31    10    35 1   
    32    10    36 1   
    33    11    37 1   
    34    12    38 1   
    35    13    39 1   
    36    13    40 1   
    37    14    41 1   
    38    14    42 1   
    39    15    43 1   
    40    15    44 1   
    41     3    27 1   
    42     4    28 1   
    43     4    29 1   
    44     5    30 1   
    45     5    31 1   
    46     6    32 1   
    47    19    45 1   
    48    20    46 1   
    49    20    47 1   
    50    22    48 1   
    51    23    49 1   
    52    24    50 1   
    53    25    51 1   
    54    26    52 1   
@<TRIPOS>SUBSTRUCTURE
     1 2P4         1 TEMP              0 ****  ****    0 ROOT
