@<TRIPOS>MOLECULE
2P5
   79    85     1     0     0
SMALL
bcc


@<TRIPOS>ATOM
      1 C16          0.0000     0.0000     0.0000 ca         1 2P5      -0.109000
      2 C17          1.3800     0.0000     0.0000 ca         1 2P5      -0.060000
      3 C20         -2.2330     0.2130     6.0170 ca         1 2P5      -0.053000
      4 C24         -3.9210    -1.2060     5.0340 ca         1 2P5      -0.053000
      5 C8           3.5050    -4.0030    -1.6340 cc         1 2P5      -0.107500
      6 C10          5.2720    -3.8860    -3.2820 cc         1 2P5      -0.107500
      7 C21         -2.9880     0.3030     7.1680 ca         1 2P5      -0.120000
      8 C23         -4.6630    -1.1130     6.1930 ca         1 2P5      -0.120000
      9 C15         -0.6950     0.0060     1.1950 ca         1 2P5      -0.086000
     10 C7           4.2240    -3.1690    -0.8090 cd         1 2P5      -0.178100
     11 C11          5.9890    -3.0560    -2.4500 cd         1 2P5      -0.178100
     12 C5           7.6480     1.2660     2.3100 cc         1 2P5       0.253700
     13 C12          2.0780     0.0000     1.2070 cp         1 2P5      -0.145500
     14 C9           4.0250    -4.3710    -2.8780 cc         1 2P5       0.080000
     15 C19         -2.6980    -0.5410     4.9380 ca         1 2P5      -0.174600
     16 C22         -4.2010    -0.3600     7.2570 ca         1 2P5      -0.051300
     17 C13          1.3790     0.0010     2.4120 ca         1 2P5      -0.035300
     18 C3           6.2460    -0.0150     1.2030 ca         1 2P5      -0.576800
     19 C6           5.4680    -2.6920    -1.2120 cd         1 2P5       0.100900
     20 C14         -0.0080     0.0080     2.4030 ca         1 2P5      -0.107400
     21 C2           5.5340     0.9050     1.9930 ca         1 2P5       0.557300
     22 C4           5.5300    -0.9230     0.4190 ca         1 2P5       0.418800
     23 C1           3.5610    -0.0010     1.2090 cp         1 2P5       0.686500
     24 C27          1.6760    -6.4940    -5.0680 c3         1 2P5      -0.206700
     25 C30          3.9410    -7.0760    -4.7180 c3         1 2P5      -0.206700
     26 C28          1.2710    -7.9400    -4.7740 c3         1 2P5       0.232900
     27 C29          3.5150    -8.5180    -4.4290 c3         1 2P5       0.232900
     28 C26          2.1270     0.0000     3.7190 c3         1 2P5       0.048200
     29 C32         -6.4930    -0.0450     8.1330 c3         1 2P5       0.004567
     30 C33         -4.8830    -1.5080     9.3380 c3         1 2P5       0.004567
     31 C34         -4.5530     0.9540     9.3210 c3         1 2P5       0.004567
     32 C31         -5.0300    -0.2390     8.5090 c3         1 2P5      -0.018700
     33 N4           7.5810     0.2420     1.4280 na         1 2P5       0.301700
     34 N2           4.1990     0.8760     1.9660 nb         1 2P5      -0.593000
     35 N1           4.2030    -0.8840     0.4510 nb         1 2P5      -0.670000
     36 N3           6.4480     1.6530     2.6400 nd         1 2P5      -0.589700
     37 N7           2.9020    -6.1240    -4.4040 nk         1 2P5       0.698900
     38 N6          -0.7150     0.0080     3.6100 ns         1 2P5      -0.060100
     39 O2           2.1510    -5.5740    -3.4780 op         1 2P5      -0.428400
     40 O1          -2.2030    -1.4060     2.8560 o          1 2P5      -0.612100
     41 O3           2.3050    -8.8550    -5.0660 os         1 2P5      -0.392600
     42 H1          -0.5420    -0.0000    -0.9380 ha         1 2P5       0.105000
     43 H2           1.9220    -0.0050    -0.9380 ha         1 2P5       0.113000
     44 H3          -1.2850     0.7320     5.9490 ha         1 2P5       0.115500
     45 H4          -4.2850    -1.7970     4.2030 ha         1 2P5       0.115500
     46 H5           2.5360    -4.3740    -1.3190 ha         1 2P5       0.114000
     47 H6           5.6780    -4.1690    -4.2450 ha         1 2P5       0.114000
     48 H7          -2.6290     0.8870     8.0060 ha         1 2P5       0.117500
     49 H8          -5.6130    -1.6280     6.2710 ha         1 2P5       0.117500
     50 H9          -1.7780     0.0060     1.1920 ha         1 2P5       0.125000
     51 H10          3.8220    -2.8830     0.1560 ha         1 2P5       0.124000
     52 H11          6.9560    -2.6800    -2.7630 ha         1 2P5       0.124000
     53 H12          8.5550     1.7140     2.6970 h5         1 2P5       0.031800
     54 H13          0.8840    -5.8350    -4.7330 hx         1 2P5       0.066450
     55 H14          1.8080    -6.3780    -6.1370 hx         1 2P5       0.066450
     56 H15          4.1880    -6.9890    -5.7690 hx         1 2P5       0.066450
     57 H16          4.8180    -6.8450    -4.1260 hx         1 2P5       0.066450
     58 H17          0.4040    -8.1890    -5.3750 h1         1 2P5       0.016950
     59 H18          1.0140    -8.0250    -3.7250 h1         1 2P5       0.016950
     60 H19          4.2920    -9.1880    -4.7760 h1         1 2P5       0.016950
     61 H20          3.3920    -8.6380    -3.3590 h1         1 2P5       0.016950
     62 H21          3.0340    -0.5830     3.6160 hc         1 2P5       0.017367
     63 H22          1.5040    -0.4340     4.4920 hc         1 2P5       0.017367
     64 H23          2.3810     1.0180     3.9900 hc         1 2P5       0.017367
     65 H24         -7.0440     0.3060     8.9970 hc         1 2P5       0.008367
     66 H25         -6.9080    -0.9880     7.7990 hc         1 2P5       0.008367
     67 H26         -6.5670     0.6850     7.3360 hc         1 2P5       0.008367
     68 H27         -5.4200    -1.3920    10.2720 hc         1 2P5       0.008367
     69 H28         -3.8350    -1.6860     9.5440 hc         1 2P5       0.008367
     70 H29         -5.2910    -2.3480     8.7890 hc         1 2P5       0.008367
     71 H30         -3.5620     0.7540     9.7090 hc         1 2P5       0.008367
     72 H31         -5.2350     1.1270    10.1440 hc         1 2P5       0.008367
     73 H32         -4.5220     1.8330     8.6870 hc         1 2P5       0.008367
     74 H33          8.3600    -0.2340     1.0200 hn         1 2P5       0.125700
     75 H35          7.0240    -2.1790     0.0730 hn         1 2P5       0.106700
     76 H36         -0.8250     0.8590     4.1250 hn         1 2P5       0.158500
     77 N5           6.1920    -1.8480    -0.3750 nu         1 2P5      -0.006900
     78 C25          3.2590    -5.2690    -3.7630 cu         1 2P5      -0.328900
     79 C18         -1.8970    -0.6350     3.6990 c          1 2P5       0.583700
@<TRIPOS>BOND
     1     1     2 ar  
     2     1     9 ar  
     3     1    42 1   
     4     2    13 ar  
     5     2    43 1   
     6     3     7 ar  
     7     3    15 ar  
     8     3    44 1   
     9     4     8 ar  
    10     4    15 ar  
    11     4    45 1   
    12     5    10 2   
    13     5    14 1   
    14     5    46 1   
    15     6    11 2   
    16     6    14 1   
    17     6    47 1   
    18     7    16 ar  
    19     7    48 1   
    20     8    16 ar  
    21     8    49 1   
    22     9    20 ar  
    23     9    50 1   
    24    10    19 1   
    25    10    51 1   
    26    11    19 1   
    27    11    52 1   
    28    12    33 1   
    29    12    36 2   
    30    12    53 1   
    31    13    17 ar  
    32    13    23 1   
    33    14    78 2   
    34    15    79 1   
    35    16    32 1   
    36    17    20 ar  
    37    17    28 1   
    38    18    21 ar  
    39    18    22 ar  
    40    18    33 1   
    41    19    77 2   
    42    20    38 1   
    43    21    34 ar  
    44    21    36 1   
    45    22    35 ar  
    46    22    77 1   
    47    23    34 ar  
    48    23    35 ar  
    49    24    26 1   
    50    24    37 1   
    51    24    54 1   
    52    24    55 1   
    53    25    27 1   
    54    25    37 1   
    55    25    56 1   
    56    25    57 1   
    57    26    41 1   
    58    26    58 1   
    59    26    59 1   
    60    27    41 1   
    61    27    60 1   
    62    27    61 1   
    63    28    62 1   
    64    28    63 1   
    65    28    64 1   
    66    29    32 1   
    67    29    65 1   
    68    29    66 1   
    69    29    67 1   
    70    30    32 1   
    71    30    68 1   
    72    30    69 1   
    73    30    70 1   
    74    31    32 1   
    75    31    71 1   
    76    31    72 1   
    77    31    73 1   
    78    33    74 1   
    79    37    39 1   
    80    37    78 1   
    81    38    76 1   
    82    38    79 1   
    83    39    78 1   
    84    40    79 2   
    85    75    77 1   
@<TRIPOS>SUBSTRUCTURE
     1 2P5         1 TEMP              0 ****  ****    0 ROOT
