@<TRIPOS>MOLECULE
molecule
   79    84     1     0     0
SMALL
bcc


@<TRIPOS>ATOM
      1 C16          0.0000     0.0000     0.0000 ca         1 2P5      -0.136000
      2 C17          1.3800     0.0000     0.0000 ca         1 2P5      -0.086000
      3 C20         -2.2330     0.2130     6.0170 ca         1 2P5      -0.083000
      4 C24         -3.9210    -1.2060     5.0340 ca         1 2P5      -0.083000
      5 C8           3.5050    -4.0030    -1.6340 ca         1 2P5      -0.117500
      6 C10          5.2720    -3.8860    -3.2820 ca         1 2P5      -0.117500
      7 C21         -2.9880     0.3030     7.1680 ca         1 2P5      -0.139000
      8 C23         -4.6630    -1.1130     6.1930 ca         1 2P5      -0.139000
      9 C15         -0.6950     0.0060     1.1950 ca         1 2P5      -0.110000
     10 C7           4.2240    -3.1690    -0.8090 ca         1 2P5      -0.121500
     11 C11          5.9890    -3.0560    -2.4500 ca         1 2P5      -0.121500
     12 C5           7.6480     1.2660     2.3100 cc         1 2P5       0.451700
     13 C12          2.0780     0.0000     1.2070 cp         1 2P5      -0.131500
     14 C9           4.0250    -4.3710    -2.8780 ca         1 2P5       0.020400
     15 C19         -2.6980    -0.5410     4.9380 ca         1 2P5      -0.164600
     16 C22         -4.2010    -0.3600     7.2570 ca         1 2P5      -0.045300
     17 C13          1.3790     0.0010     2.4120 ca         1 2P5      -0.030300
     18 C3           6.2460    -0.0150     1.2030 ca         1 2P5      -0.395800
     19 C6           5.4680    -2.6920    -1.2120 ca         1 2P5       0.109600
     20 C14         -0.0080     0.0080     2.4030 ca         1 2P5       0.016600
     21 C2           5.5340     0.9050     1.9930 ca         1 2P5       0.638300
     22 C4           5.5300    -0.9230     0.4190 ca         1 2P5       0.715200
     23 C1           3.5610    -0.0010     1.2090 cp         1 2P5       0.770500
     24 C27          1.6760    -6.4940    -5.0680 c3         1 2P5      -0.089000
     25 C30          3.9410    -7.0760    -4.7180 c3         1 2P5      -0.089000
     26 C28          1.2710    -7.9400    -4.7740 c3         1 2P5       0.135400
     27 C29          3.5150    -8.5180    -4.4290 c3         1 2P5       0.135400
     28 C26          2.1270     0.0000     3.7190 c3         1 2P5      -0.045800
     29 C32         -6.4930    -0.0450     8.1330 c3         1 2P5      -0.081767
     30 C33         -4.8830    -1.5080     9.3380 c3         1 2P5      -0.081767
     31 C34         -4.5530     0.9540     9.3210 c3         1 2P5      -0.081767
     32 C31         -5.0300    -0.2390     8.5090 c3         1 2P5      -0.027700
     33 N4           7.5810     0.2420     1.4280 na         1 2P5      -0.246300
     34 N2           4.1990     0.8760     1.9660 nb         1 2P5      -0.713000
     35 N1           4.2030    -0.8840     0.4510 nb         1 2P5      -0.779000
     36 N3           6.4480     1.6530     2.6400 nd         1 2P5      -0.674700
     37 N7           2.9020    -6.1240    -4.4040 n          1 2P5       0.136200
     38 N6          -0.7150     0.0080     3.6100 ns         1 2P5      -0.439100
     39 O2           2.1510    -5.5740    -3.4780 o          1 2P5      -0.628100
     40 O1          -2.2030    -1.4060     2.8560 o          1 2P5      -0.572100
     41 O3           2.3050    -8.8550    -5.0660 os         1 2P5      -0.405600
     42 H1          -0.5420    -0.0000    -0.9380 ha         1 2P5       0.136000
     43 H2           1.9220    -0.0050    -0.9380 ha         1 2P5       0.145000
     44 H3          -1.2850     0.7320     5.9490 ha         1 2P5       0.143000
     45 H4          -4.2850    -1.7970     4.2030 ha         1 2P5       0.143000
     46 H5           2.5360    -4.3740    -1.3190 ha         1 2P5       0.143500
     47 H6           5.6780    -4.1690    -4.2450 ha         1 2P5       0.143500
     48 H7          -2.6290     0.8870     8.0060 ha         1 2P5       0.139000
     49 H8          -5.6130    -1.6280     6.2710 ha         1 2P5       0.139000
     50 H9          -1.7780     0.0060     1.1920 ha         1 2P5       0.149000
     51 H10          3.8220    -2.8830     0.1560 ha         1 2P5       0.152500
     52 H11          6.9560    -2.6800    -2.7630 ha         1 2P5       0.152500
     53 H12          8.5550     1.7140     2.6970 h5         1 2P5       0.081800
     54 H13          0.8840    -5.8350    -4.7330 h1         1 2P5       0.072700
     55 H14          1.8080    -6.3780    -6.1370 h1         1 2P5       0.072700
     56 H15          4.1880    -6.9890    -5.7690 h1         1 2P5       0.072700
     57 H16          4.8180    -6.8450    -4.1260 h1         1 2P5       0.072700
     58 H17          0.4040    -8.1890    -5.3750 h1         1 2P5       0.057950
     59 H18          1.0140    -8.0250    -3.7250 h1         1 2P5       0.057950
     60 H19          4.2920    -9.1880    -4.7760 h1         1 2P5       0.057950
     61 H20          3.3920    -8.6380    -3.3590 h1         1 2P5       0.057950
     62 H21          3.0340    -0.5830     3.6160 hc         1 2P5       0.051700
     63 H22          1.5040    -0.4340     4.4920 hc         1 2P5       0.051700
     64 H23          2.3810     1.0180     3.9900 hc         1 2P5       0.051700
     65 H24         -7.0440     0.3060     8.9970 hc         1 2P5       0.038256
     66 H25         -6.9080    -0.9880     7.7990 hc         1 2P5       0.038256
     67 H26         -6.5670     0.6850     7.3360 hc         1 2P5       0.038256
     68 H27         -5.4200    -1.3920    10.2720 hc         1 2P5       0.038256
     69 H28         -3.8350    -1.6860     9.5440 hc         1 2P5       0.038256
     70 H29         -5.2910    -2.3480     8.7890 hc         1 2P5       0.038256
     71 H30         -3.5620     0.7540     9.7090 hc         1 2P5       0.038256
     72 H31         -5.2350     1.1270    10.1440 hc         1 2P5       0.038256
     73 H32         -4.5220     1.8330     8.6870 hc         1 2P5       0.038256
     74 H33          8.3600    -0.2340     1.0200 hn         1 2P5       0.304700
     75 H35          7.0240    -2.1790     0.0730 hn         1 2P5       0.423800
     76 H36         -0.8250     0.8590     4.1250 hn         1 2P5       0.296500
     77 N5           6.1920    -1.8480    -0.3750 nu         1 2P5      -0.739300
     78 C25          3.2590    -5.2690    -3.7630 c          1 2P5       0.218700
     79 C18         -1.8970    -0.6350     3.6990 c          1 2P5       0.648700
@<TRIPOS>BOND
     1    12    36 2   
     2    12    33 1   
     3    36    21 1   
     4    33    18 1   
     5    18    21 ar  
     6    18    22 ar  
     7    21    34 ar  
     8    34    23 ar  
     9    31    32 1   
    10    22    77 1   
    11    22    35 ar  
    12    77    19 1   
    13    30    32 1   
    14    28    17 1   
    15    10    19 ar  
    16    10     5 ar  
    17    23    35 ar  
    18    23    13 1   
    19    32    16 1   
    20    32    29 1   
    21    19    11 ar  
    22     8    16 ar  
    23     8     4 ar  
    24    16     7 ar  
    25     4    15 ar  
    26     5    14 ar  
    27     7     3 ar  
    28    17    13 ar  
    29    17    20 ar  
    30    13     2 ar  
    31    27    25 1   
    32    27    41 1   
    33    15     3 ar  
    34    15    79 1   
    35    11     6 ar  
    36    40    79 2   
    37    79    38 1   
    38    25    37 1   
    39    38    20 1   
    40    14     6 ar  
    41    14    78 1   
    42    20     9 ar  
    43    41    26 1   
    44     2     1 ar  
    45    37    78 1   
    46    37    24 1   
    47    78    39 2   
    48    26    24 1   
    49     9     1 ar  
    50     1    42 1   
    51     2    43 1   
    52     3    44 1   
    53     4    45 1   
    54     5    46 1   
    55     6    47 1   
    56     7    48 1   
    57     8    49 1   
    58     9    50 1   
    59    10    51 1   
    60    11    52 1   
    61    12    53 1   
    62    24    54 1   
    63    24    55 1   
    64    25    56 1   
    65    25    57 1   
    66    26    58 1   
    67    26    59 1   
    68    27    60 1   
    69    27    61 1   
    70    28    62 1   
    71    28    63 1   
    72    28    64 1   
    73    29    65 1   
    74    29    66 1   
    75    29    67 1   
    76    30    68 1   
    77    30    69 1   
    78    30    70 1   
    79    31    71 1   
    80    31    72 1   
    81    31    73 1   
    82    33    74 1   
    83    77    75 1   
    84    38    76 1   
@<TRIPOS>SUBSTRUCTURE
     1 2P5         1 TEMP              0 ****  ****    0 ROOT
