@<TRIPOS>MOLECULE
molecule
   50    52     1     0     0
SMALL
bcc


@<TRIPOS>ATOM
      1 C17          0.0000     0.0000     0.0000 c3         1 2P6      -0.150400
      2 C18          1.5300     0.0000     0.0000 c3         1 2P6      -0.063400
      3 C19          2.0420     0.0000     1.4420 c3         1 2P6      -0.039100
      4 C20          3.5480     0.0010     1.4410 ca         1 2P6      -0.079300
      5 C21          4.2380     1.1980     1.4410 ca         1 2P6      -0.123500
      6 C25          4.2390    -1.1960     1.4470 ca         1 2P6      -0.123500
      7 C22          5.6210     1.1990     1.4400 ca         1 2P6      -0.125500
      8 C24          5.6220    -1.1950     1.4460 ca         1 2P6      -0.125500
      9 C23          6.3130     0.0020     1.4400 ca         1 2P6      -0.132000
     10 C15         -0.5040    -0.0010    -1.4200 c          1 2P6       0.687100
     11 O16          0.2840    -0.0000    -2.3430 o          1 2P6      -0.589100
     12 N14         -1.8280    -0.0010    -1.6660 n          1 2P6      -0.484800
     13 C10         -2.4530    -0.0010    -2.9970 c3         1 2P6       0.050700
     14 C8          -2.0210     1.2200    -3.7660 c          1 2P6       0.670100
     15 O9          -1.2540     2.0130    -3.2620 o          1 2P6      -0.561100
     16 C11         -3.9820     0.0240    -2.7850 c3         1 2P6      -0.095400
     17 C12         -4.1250     0.6080    -1.3550 c3         1 2P6      -0.095400
     18 C13         -2.8910    -0.0080    -0.6440 c3         1 2P6       0.096000
     19 C1          -2.5910     3.8290    -5.2320 c1         1 2P6       0.207700
     20 N2          -2.9290     4.7940    -4.7380 n1         1 2P6      -0.359800
     21 C3          -2.1510     2.5770    -5.8710 c3         1 2P6       0.185800
     22 C4          -2.8950     2.3820    -7.2090 c3         1 2P6      -0.088400
     23 C5          -3.1610     0.8530    -7.2380 c3         1 2P6      -0.096400
     24 C6          -3.4220     0.5530    -5.7410 c3         1 2P6       0.092000
     25 N7          -2.4890     1.4320    -5.0130 n          1 2P6      -0.500800
     26 H17         -0.3610     0.8850     0.5110 hc         1 2P6       0.058700
     27 H17A        -0.3610    -0.8840     0.5110 hc         1 2P6       0.058700
     28 H18          1.8910    -0.8840    -0.5110 hc         1 2P6       0.064700
     29 H18A         1.8910     0.8840    -0.5110 hc         1 2P6       0.064700
     30 H19          1.6810    -0.8850     1.9530 hc         1 2P6       0.044700
     31 H19A         1.6800     0.8840     1.9530 hc         1 2P6       0.044700
     32 H21          3.6960     2.1360     1.4410 ha         1 2P6       0.129500
     33 H25          3.6980    -2.1350     1.4520 ha         1 2P6       0.129500
     34 H22          6.1620     2.1380     1.4380 ha         1 2P6       0.128000
     35 H24          6.1640    -2.1330     1.4480 ha         1 2P6       0.128000
     36 H23          7.3960     0.0030     1.4390 ha         1 2P6       0.127000
     37 H10         -2.1720    -0.8990    -3.5330 h1         1 2P6       0.075700
     38 H11         -4.4570     0.6730    -3.5110 hc         1 2P6       0.059700
     39 H11A        -4.3900    -0.9780    -2.8310 hc         1 2P6       0.059700
     40 H12         -5.0450     0.2730    -0.8910 hc         1 2P6       0.063200
     41 H12A        -4.0600     1.6900    -1.3710 hc         1 2P6       0.063200
     42 H13         -3.1050    -1.0230    -0.3320 h1         1 2P6       0.047700
     43 H13A        -2.6020     0.6010     0.2030 h1         1 2P6       0.047700
     44 H3          -1.0830     2.6020    -6.0450 h1         1 2P6       0.093700
     45 H4A         -3.8280     2.9320    -7.2110 hc         1 2P6       0.065700
     46 H5          -4.0360     0.6250    -7.8350 hc         1 2P6       0.062200
     47 H5A         -2.2890     0.3160    -7.5920 hc         1 2P6       0.062200
     48 H6          -3.2070    -0.4860    -5.5230 h1         1 2P6       0.049200
     49 H6A         -4.4460     0.7960    -5.4820 h1         1 2P6       0.049200
     50 H4          -2.2660     2.6750    -8.0410 hc         1 2P6       0.065700
@<TRIPOS>BOND
     1    19    20 3   
     2    19    21 1   
     3    21    22 1   
     4    21    25 1   
     5    22    23 1   
     6    23    24 1   
     7    24    25 1   
     8    25    14 1   
     9    14    15 2   
    10    14    13 1   
    11    13    16 1   
    12    13    12 1   
    13    16    17 1   
    14    17    18 1   
    15    18    12 1   
    16    12    10 1   
    17    10    11 2   
    18    10     1 1   
    19     1     2 1   
    20     2     3 1   
    21     3     4 1   
    22     4     5 ar  
    23     4     6 ar  
    24     5     7 ar  
    25     7     9 ar  
    26     9     8 ar  
    27     8     6 ar  
    28    21    44 1   
    29    22    50 1   
    30    22    45 1   
    31    23    46 1   
    32    23    47 1   
    33    24    48 1   
    34    24    49 1   
    35    13    37 1   
    36    16    38 1   
    37    16    39 1   
    38    17    40 1   
    39    17    41 1   
    40    18    42 1   
    41    18    43 1   
    42     1    26 1   
    43     1    27 1   
    44     2    28 1   
    45     2    29 1   
    46     3    30 1   
    47     3    31 1   
    48     5    32 1   
    49     7    34 1   
    50     9    36 1   
    51     8    35 1   
    52     6    33 1   
@<TRIPOS>SUBSTRUCTURE
     1 2P6         1 TEMP              0 ****  ****    0 ROOT
