@<TRIPOS>MOLECULE
2P6
   50    52     1     0     0
SMALL
bcc


@<TRIPOS>ATOM
      1 C17          0.0000     0.0000     0.0000 c3         1 2P6      -0.095400
      2 C18          1.5300     0.0000     0.0000 c3         1 2P6      -0.014400
      3 C19          2.0420     0.0000     1.4420 c3         1 2P6       0.026900
      4 C20          3.5480     0.0010     1.4410 ca         1 2P6      -0.086300
      5 C21          4.2380     1.1980     1.4410 ca         1 2P6      -0.096500
      6 C25          4.2390    -1.1960     1.4470 ca         1 2P6      -0.096500
      7 C22          5.6210     1.1990     1.4400 ca         1 2P6      -0.099000
      8 C24          5.6220    -1.1950     1.4460 ca         1 2P6      -0.099000
      9 C23          6.3130     0.0020     1.4400 ca         1 2P6      -0.106000
     10 C15         -0.5040    -0.0010    -1.4200 c          1 2P6       0.613100
     11 O16          0.2840    -0.0000    -2.3430 o          1 2P6      -0.630100
     12 N14         -1.8280    -0.0010    -1.6660 n          1 2P6      -0.147800
     13 C10         -2.4530    -0.0010    -2.9970 c3         1 2P6      -0.029300
     14 C8          -2.0210     1.2200    -3.7660 c          1 2P6       0.599100
     15 O9          -1.2540     2.0130    -3.2620 o          1 2P6      -0.600100
     16 C11         -3.9820     0.0240    -2.7850 c3         1 2P6      -0.043400
     17 C12         -4.1250     0.6080    -1.3550 c3         1 2P6      -0.031400
     18 C13         -2.8910    -0.0080    -0.6440 c3         1 2P6       0.047000
     19 C1          -2.5910     3.8290    -5.2320 c1         1 2P6       0.178700
     20 N2          -2.9290     4.7940    -4.7380 n1         1 2P6      -0.366800
     21 C3          -2.1510     2.5770    -5.8710 c3         1 2P6       0.174800
     22 C4          -2.8950     2.3820    -7.2090 c3         1 2P6      -0.036400
     23 C5          -3.1610     0.8530    -7.2380 c3         1 2P6      -0.031400
     24 C6          -3.4220     0.5530    -5.7410 c3         1 2P6       0.042000
     25 N7          -2.4890     1.4320    -5.0130 n          1 2P6      -0.177800
     26 H17         -0.3610     0.8850     0.5110 hc         1 2P6       0.027700
     27 H17A        -0.3610    -0.8840     0.5110 hc         1 2P6       0.027700
     28 H18          1.8910    -0.8840    -0.5110 hc         1 2P6       0.034700
     29 H18A         1.8910     0.8840    -0.5110 hc         1 2P6       0.034700
     30 H19          1.6810    -0.8850     1.9530 hc         1 2P6       0.014200
     31 H19A         1.6800     0.8840     1.9530 hc         1 2P6       0.014200
     32 H21          3.6960     2.1360     1.4410 ha         1 2P6       0.105000
     33 H25          3.6980    -2.1350     1.4520 ha         1 2P6       0.105000
     34 H22          6.1620     2.1380     1.4380 ha         1 2P6       0.100500
     35 H24          6.1640    -2.1330     1.4480 ha         1 2P6       0.100500
     36 H23          7.3960     0.0030     1.4390 ha         1 2P6       0.101000
     37 H10         -2.1720    -0.8990    -3.5330 h1         1 2P6       0.046700
     38 H11         -4.4570     0.6730    -3.5110 hc         1 2P6       0.030700
     39 H11A        -4.3900    -0.9780    -2.8310 hc         1 2P6       0.030700
     40 H12         -5.0450     0.2730    -0.8910 hc         1 2P6       0.031200
     41 H12A        -4.0600     1.6900    -1.3710 hc         1 2P6       0.031200
     42 H13         -3.1050    -1.0230    -0.3320 h1         1 2P6       0.019200
     43 H13A        -2.6020     0.6010     0.2030 h1         1 2P6       0.019200
     44 H3          -1.0830     2.6020    -6.0450 h1         1 2P6       0.054700
     45 H4A         -3.8280     2.9320    -7.2110 hc         1 2P6       0.034200
     46 H5          -4.0360     0.6250    -7.8350 hc         1 2P6       0.030200
     47 H5A         -2.2890     0.3160    -7.5920 hc         1 2P6       0.030200
     48 H6          -3.2070    -0.4860    -5.5230 h1         1 2P6       0.023200
     49 H6A         -4.4460     0.7960    -5.4820 h1         1 2P6       0.023200
     50 H4          -2.2660     2.6750    -8.0410 hc         1 2P6       0.034200
@<TRIPOS>BOND
     1     1     2 1   
     2     1    10 1   
     3     1    26 1   
     4     1    27 1   
     5     2     3 1   
     6     2    28 1   
     7     2    29 1   
     8     3     4 1   
     9     3    30 1   
    10     3    31 1   
    11     4     5 ar  
    12     4     6 ar  
    13     5     7 ar  
    14     5    32 1   
    15     6     8 ar  
    16     6    33 1   
    17     7     9 ar  
    18     7    34 1   
    19     8     9 ar  
    20     8    35 1   
    21     9    36 1   
    22    10    11 2   
    23    10    12 1   
    24    12    13 1   
    25    12    18 1   
    26    13    14 1   
    27    13    16 1   
    28    13    37 1   
    29    14    15 2   
    30    14    25 1   
    31    16    17 1   
    32    16    38 1   
    33    16    39 1   
    34    17    18 1   
    35    17    40 1   
    36    17    41 1   
    37    18    42 1   
    38    18    43 1   
    39    19    20 3   
    40    19    21 1   
    41    21    22 1   
    42    21    25 1   
    43    21    44 1   
    44    22    23 1   
    45    22    45 1   
    46    22    50 1   
    47    23    24 1   
    48    23    46 1   
    49    23    47 1   
    50    24    25 1   
    51    24    48 1   
    52    24    49 1   
@<TRIPOS>SUBSTRUCTURE
     1 2P6         1 TEMP              0 ****  ****    0 ROOT
