@<TRIPOS>MOLECULE
2P7
   36    38     1     0     0
SMALL
bcc


@<TRIPOS>ATOM
      1 C5           0.0000     0.0000     0.0000 ca         1 2P7       0.058600
      2 C6           1.3890     0.0000     0.0000 ca         1 2P7      -0.163000
      3 C7           2.0780     0.0000     1.1980 ca         1 2P7      -0.044000
      4 C2           1.3870    -0.0010     2.3960 ca         1 2P7       0.170900
      5 C3           0.0040    -0.0020     2.4000 ca         1 2P7      -0.070000
      6 C4          -0.6930     0.0050     1.2060 ca         1 2P7       0.041900
      7 N8          -0.7010     0.0000    -1.2120 nu         1 2P7      -0.231000
      8 C9          -0.0110     0.1200    -2.4140 ca         1 2P7       0.053600
      9 C14          0.5760    -1.0090    -3.0060 ca         1 2P7      -0.136600
     10 C13          1.2660    -0.8770    -4.2140 ca         1 2P7      -0.103000
     11 C12          1.3660     0.3570    -4.8170 ca         1 2P7      -0.112000
     12 C11          0.7850     1.4740    -4.2310 ca         1 2P7       0.103900
     13 C10          0.0950     1.3580    -3.0370 ca         1 2P7       0.069900
     14 C15          0.4670    -2.3270    -2.3570 c          1 2P7       0.647700
     15 N17          1.1550    -3.3790    -2.8450 nj         1 2P7      -0.174800
     16 O16         -0.2450    -2.4670    -1.3800 o          1 2P7      -0.632100
     17 C19          2.7120    -4.7310    -3.1710 cy         1 2P7       0.149100
     18 C20          1.3510    -4.7850    -2.4640 cy         1 2P7       0.025000
     19 O21          3.7870    -4.2730    -2.3490 oh         1 2P7      -0.549800
     20 I1           2.4380    -0.0010     4.2080 i          1 2P7      -0.301900
     21 C18          2.0350    -3.6240    -3.9970 cy         1 2P7       0.025000
     22 F24         -2.0440     0.0050     1.2110 f          1 2P7      -0.125900
     23 F23         -0.4720     2.4470    -2.4760 f          1 2P7      -0.105900
     24 F22          0.8900     2.6790    -4.8310 f          1 2P7      -0.111900
     25 H3          -0.5340    -0.0000     3.3410 ha         1 2P7       0.128000
     26 H6           1.9310    -0.0020    -0.9380 ha         1 2P7       0.119000
     27 H8          -1.7000    -0.0550    -1.2120 hn         1 2P7       0.309800
     28 H7           3.1610     0.0000     1.1990 ha         1 2P7       0.115000
     29 H13          1.7220    -1.7440    -4.6760 ha         1 2P7       0.140000
     30 H12          1.9030     0.4580    -5.7520 ha         1 2P7       0.125000
     31 H201         0.6510    -5.4550    -2.9490 h1         1 2P7       0.040200
     32 H202         1.4370    -4.9240    -1.3930 h1         1 2P7       0.040200
     33 H181         2.6950    -2.7920    -4.2090 h1         1 2P7       0.040200
     34 H182         1.5030    -4.0070    -4.8600 h1         1 2P7       0.040200
     35 H19          2.9260    -5.6210    -3.7490 h1         1 2P7       0.022700
     36 H21          4.5090    -4.8750    -2.4110 ho         1 2P7       0.396000
@<TRIPOS>BOND
     1     1     2 ar  
     2     1     6 ar  
     3     1     7 1   
     4     2     3 ar  
     5     2    26 1   
     6     3     4 ar  
     7     3    28 1   
     8     4     5 ar  
     9     4    20 1   
    10     5     6 ar  
    11     5    25 1   
    12     6    22 1   
    13     7     8 1   
    14     7    27 1   
    15     8     9 ar  
    16     8    13 ar  
    17     9    10 ar  
    18     9    14 1   
    19    10    11 ar  
    20    10    29 1   
    21    11    12 ar  
    22    11    30 1   
    23    12    13 ar  
    24    12    24 1   
    25    13    23 1   
    26    14    15 1   
    27    14    16 2   
    28    15    18 1   
    29    15    21 1   
    30    17    18 1   
    31    17    19 1   
    32    17    21 1   
    33    17    35 1   
    34    18    31 1   
    35    18    32 1   
    36    19    36 1   
    37    21    33 1   
    38    21    34 1   
@<TRIPOS>SUBSTRUCTURE
     1 2P7         1 TEMP              0 ****  ****    0 ROOT
