@<TRIPOS>MOLECULE
2P8
   53    55     1     0     0
SMALL
bcc


@<TRIPOS>ATOM
      1 C17          0.0000     0.0000     0.0000 c          1 2P8       0.621100
      2 O18          1.2160     0.0000     0.0000 o          1 2P8      -0.702100
      3 N19         -0.6730     0.0000     1.1680 ns         1 2P8      -0.221900
      4 C20          0.0610     0.0020     2.4360 c3         1 2P8       0.127300
      5 C21         -0.9180     0.0030     3.5830 ca         1 2P8      -0.125300
      6 C22         -1.3660    -1.1940     4.1090 ca         1 2P8      -0.084500
      7 C23         -2.2630    -1.1930     5.1610 ca         1 2P8      -0.104500
      8 C24         -2.7120     0.0040     5.6860 ca         1 2P8      -0.095000
      9 C25         -2.2630     1.2010     5.1590 ca         1 2P8      -0.104500
     10 C26         -1.3620     1.2000     4.1110 ca         1 2P8      -0.084500
     11 N16         -0.6750     0.0040    -1.1660 n          1 2P8      -0.160800
     12 C12         -0.0700     0.0090    -2.5060 c3         1 2P8      -0.021300
     13 C10          0.7950     1.2310    -2.6730 c          1 2P8       0.603100
     14 O11          0.6610     2.1770    -1.9250 o          1 2P8      -0.630100
     15 C13         -1.2240     0.0390    -3.5290 c3         1 2P8      -0.030400
     16 C14         -2.4040     0.6200    -2.7070 c3         1 2P8      -0.030400
     17 C15         -2.1420    -0.0030    -1.3100 c3         1 2P8       0.047000
     18 C1           1.6580     3.6020    -4.4380 c3         1 2P8       0.161100
     19 O2           2.4760     4.6850    -4.8880 oh         1 2P8      -0.580800
     20 C3           0.7470     3.1430    -5.5790 c3         1 2P8       0.192400
     21 O4          -0.1700     4.1900    -5.9050 oh         1 2P8      -0.585800
     22 C5           2.5490     2.4380    -3.9980 c3         1 2P8       0.020700
     23 C6           3.4720     2.0150    -5.1600 c3         1 2P8      -0.035400
     24 C7           3.5070     0.4690    -5.0310 c3         1 2P8      -0.034400
     25 C8           2.0620     0.1640    -4.5600 c3         1 2P8       0.041000
     26 N9           1.7180     1.2760    -3.6540 n          1 2P8      -0.157800
     27 HN19        -1.6730    -0.0290     1.1690 hn         1 2P8       0.174500
     28 H20          0.6840     0.8870     2.4920 h1         1 2P8       0.028700
     29 H20A         0.6840    -0.8820     2.4940 h1         1 2P8       0.028700
     30 H22         -1.0140    -2.1330     3.6980 ha         1 2P8       0.109000
     31 H23         -2.6150    -2.1310     5.5740 ha         1 2P8       0.103500
     32 H24         -3.4160     0.0050     6.5090 ha         1 2P8       0.102000
     33 H25         -2.6120     2.1390     5.5720 ha         1 2P8       0.103500
     34 H26         -1.0100     2.1380     3.6980 ha         1 2P8       0.109000
     35 H12          0.5200    -0.8890    -2.6450 h1         1 2P8       0.042700
     36 H13         -0.9800     0.6910    -4.3600 hc         1 2P8       0.026200
     37 H13A        -1.4550    -0.9620    -3.8730 hc         1 2P8       0.026200
     38 H14         -2.3490     1.7010    -2.6640 hc         1 2P8       0.031200
     39 H14A        -3.3540     0.2870    -3.1060 hc         1 2P8       0.031200
     40 H15         -2.5190    -1.0180    -1.2740 h1         1 2P8       0.015200
     41 H15A        -2.5980     0.6030    -0.5370 h1         1 2P8       0.015200
     42 H1           1.0530     3.9300    -3.6020 h1         1 2P8       0.040700
     43 HO2          2.3350     5.4360    -4.3350 ho         1 2P8       0.397000
     44 H3           0.1960     2.2640    -5.2690 h1         1 2P8      -0.003300
     45 H3A          1.3490     2.9060    -6.4480 h1         1 2P8      -0.003300
     46 HO4         -0.5860     3.9970    -6.7290 ho         1 2P8       0.387000
     47 H5           3.1460     2.7280    -3.1420 h1         1 2P8       0.049700
     48 H6           4.4630     2.4310    -5.0310 hc         1 2P8       0.035200
     49 H6A          3.0450     2.3090    -6.1120 hc         1 2P8       0.035200
     50 H7           4.2290     0.1610    -4.2850 hc         1 2P8       0.026700
     51 H7A          3.7060     0.0060    -5.9900 hc         1 2P8       0.026700
     52 H8           1.3870     0.1470    -5.4070 h1         1 2P8       0.017200
     53 H8A          2.0330    -0.7780    -4.0270 h1         1 2P8       0.017200
@<TRIPOS>BOND
     1     1     2 2   
     2     1     3 1   
     3     1    11 1   
     4     3     4 1   
     5     3    27 1   
     6     4     5 1   
     7     4    28 1   
     8     4    29 1   
     9     5     6 ar  
    10     5    10 ar  
    11     6     7 ar  
    12     6    30 1   
    13     7     8 ar  
    14     7    31 1   
    15     8     9 ar  
    16     8    32 1   
    17     9    10 ar  
    18     9    33 1   
    19    10    34 1   
    20    11    12 1   
    21    11    17 1   
    22    12    13 1   
    23    12    15 1   
    24    12    35 1   
    25    13    14 2   
    26    13    26 1   
    27    15    16 1   
    28    15    36 1   
    29    15    37 1   
    30    16    17 1   
    31    16    38 1   
    32    16    39 1   
    33    17    40 1   
    34    17    41 1   
    35    18    19 1   
    36    18    20 1   
    37    18    22 1   
    38    18    42 1   
    39    19    43 1   
    40    20    21 1   
    41    20    44 1   
    42    20    45 1   
    43    21    46 1   
    44    22    23 1   
    45    22    26 1   
    46    22    47 1   
    47    23    24 1   
    48    23    48 1   
    49    23    49 1   
    50    24    25 1   
    51    24    50 1   
    52    24    51 1   
    53    25    26 1   
    54    25    52 1   
    55    25    53 1   
@<TRIPOS>SUBSTRUCTURE
     1 2P8         1 TEMP              0 ****  ****    0 ROOT
