@<TRIPOS>MOLECULE
molecule
   53    55     1     0     0
SMALL
bcc


@<TRIPOS>ATOM
      1 C17          0.0000     0.0000     0.0000 c          1 2P8       0.812100
      2 O18          1.2160     0.0000     0.0000 o          1 2P8      -0.650100
      3 N19         -0.6730     0.0000     1.1680 ns         1 2P8      -0.598900
      4 C20          0.0610     0.0020     2.4360 c3         1 2P8       0.179300
      5 C21         -0.9180     0.0030     3.5830 ca         1 2P8      -0.118300
      6 C22         -1.3660    -1.1940     4.1090 ca         1 2P8      -0.112000
      7 C23         -2.2630    -1.1930     5.1610 ca         1 2P8      -0.132500
      8 C24         -2.7120     0.0040     5.6860 ca         1 2P8      -0.121000
      9 C25         -2.2630     1.2010     5.1590 ca         1 2P8      -0.132500
     10 C26         -1.3620     1.2000     4.1110 ca         1 2P8      -0.112000
     11 N16         -0.6750     0.0040    -1.1660 n          1 2P8      -0.497800
     12 C12         -0.0700     0.0090    -2.5060 c3         1 2P8       0.067700
     13 C10          0.7950     1.2310    -2.6730 c          1 2P8       0.674100
     14 O11          0.6610     2.1770    -1.9250 o          1 2P8      -0.585100
     15 C13         -1.2240     0.0390    -3.5290 c3         1 2P8      -0.089400
     16 C14         -2.4040     0.6200    -2.7070 c3         1 2P8      -0.093400
     17 C15         -2.1420    -0.0030    -1.3100 c3         1 2P8       0.095000
     18 C1           1.6580     3.6020    -4.4380 c3         1 2P8       0.133100
     19 O2           2.4760     4.6850    -4.8880 oh         1 2P8      -0.602800
     20 C3           0.7470     3.1430    -5.5790 c3         1 2P8       0.130400
     21 O4          -0.1700     4.1900    -5.9050 oh         1 2P8      -0.607800
     22 C5           2.5490     2.4380    -3.9980 c3         1 2P8       0.104700
     23 C6           3.4720     2.0150    -5.1600 c3         1 2P8      -0.085400
     24 C7           3.5070     0.4690    -5.0310 c3         1 2P8      -0.099400
     25 C8           2.0620     0.1640    -4.5600 c3         1 2P8       0.091000
     26 N9           1.7180     1.2760    -3.6540 n          1 2P8      -0.497800
     27 HN19        -1.6730    -0.0290     1.1690 hn         1 2P8       0.312500
     28 H20          0.6840     0.8870     2.4920 h1         1 2P8       0.059200
     29 H20A         0.6840    -0.8820     2.4940 h1         1 2P8       0.059200
     30 H22         -1.0140    -2.1330     3.6980 ha         1 2P8       0.136000
     31 H23         -2.6150    -2.1310     5.5740 ha         1 2P8       0.131500
     32 H24         -3.4160     0.0050     6.5090 ha         1 2P8       0.130000
     33 H25         -2.6120     2.1390     5.5720 ha         1 2P8       0.131500
     34 H26         -1.0100     2.1380     3.6980 ha         1 2P8       0.136000
     35 H12          0.5200    -0.8890    -2.6450 h1         1 2P8       0.070700
     36 H13         -0.9800     0.6910    -4.3600 hc         1 2P8       0.058200
     37 H13A        -1.4550    -0.9620    -3.8730 hc         1 2P8       0.058200
     38 H14         -2.3490     1.7010    -2.6640 hc         1 2P8       0.063700
     39 H14A        -3.3540     0.2870    -3.1060 hc         1 2P8       0.063700
     40 H15         -2.5190    -1.0180    -1.2740 h1         1 2P8       0.044200
     41 H15A        -2.5980     0.6030    -0.5370 h1         1 2P8       0.044200
     42 H1           1.0530     3.9300    -3.6020 h1         1 2P8       0.074700
     43 HO2          2.3350     5.4360    -4.3350 ho         1 2P8       0.411000
     44 H3           0.1960     2.2640    -5.2690 h1         1 2P8       0.028200
     45 H3A          1.3490     2.9060    -6.4480 h1         1 2P8       0.028200
     46 HO4         -0.5860     3.9970    -6.7290 ho         1 2P8       0.400000
     47 H5           3.1460     2.7280    -3.1420 h1         1 2P8       0.077700
     48 H6           4.4630     2.4310    -5.0310 hc         1 2P8       0.062700
     49 H6A          3.0450     2.3090    -6.1120 hc         1 2P8       0.062700
     50 H7           4.2290     0.1610    -4.2850 hc         1 2P8       0.058200
     51 H7A          3.7060     0.0060    -5.9900 hc         1 2P8       0.058200
     52 H8           1.3870     0.1470    -5.4070 h1         1 2P8       0.043200
     53 H8A          2.0330    -0.7780    -4.0270 h1         1 2P8       0.043200
@<TRIPOS>BOND
     1    18    19 1   
     2    18    20 1   
     3    18    22 1   
     4    20    21 1   
     5    22    23 1   
     6    22    26 1   
     7    23    24 1   
     8    24    25 1   
     9    25    26 1   
    10    26    13 1   
    11    13    14 2   
    12    13    12 1   
    13    12    15 1   
    14    12    11 1   
    15    15    16 1   
    16    16    17 1   
    17    17    11 1   
    18    11     1 1   
    19     1     2 2   
    20     1     3 1   
    21     3     4 1   
    22     4     5 1   
    23     5     6 ar  
    24     5    10 ar  
    25     6     7 ar  
    26     7     8 ar  
    27     8     9 ar  
    28     9    10 ar  
    29    18    42 1   
    30    19    43 1   
    31    20    44 1   
    32    20    45 1   
    33    21    46 1   
    34    22    47 1   
    35    23    48 1   
    36    23    49 1   
    37    24    50 1   
    38    24    51 1   
    39    25    52 1   
    40    25    53 1   
    41    12    35 1   
    42    15    36 1   
    43    15    37 1   
    44    16    38 1   
    45    16    39 1   
    46    17    40 1   
    47    17    41 1   
    48     3    27 1   
    49     4    28 1   
    50     4    29 1   
    51     6    30 1   
    52     7    31 1   
    53     8    32 1   
    54     9    33 1   
    55    10    34 1   
@<TRIPOS>SUBSTRUCTURE
     1 2P8         1 TEMP              0 ****  ****    0 ROOT
