@<TRIPOS>MOLECULE
2P9
   58    62     1     0     0
SMALL
bcc


@<TRIPOS>ATOM
      1 O01        -0.6840    0.0540    0.7760 o         1 2P9     -0.791800
      2 C02         0.4510   -0.4690    0.6980 c         1 2P9      0.835100
      3 C03         1.4670   -0.1940    1.8160 cc        1 2P9      0.289800
      4 N04         1.3460    0.6280    2.8740 nd        1 2P9     -0.459800
      5 N05         2.4670    0.4940    3.6390 na        1 2P9      0.118300
      6 C06         2.7920    1.4510    4.6300 ca        1 2P9      0.061800
      7 C07         4.1150    1.8950    4.8230 ca        1 2P9     -0.163000
      8 C08         4.4110    2.8040    5.8410 ca        1 2P9      0.032400
      9 CL2         6.0270    3.2920    6.0490 cl        1 2P9     -0.086400
     10 C10         3.3950    3.3050    6.6630 ca        1 2P9     -0.008600
     11 CL          3.7300    4.4090    7.9090 cl        1 2P9     -0.085400
     12 C12         2.0750    2.8940    6.4500 ca        1 2P9     -0.108000
     13 C13         1.7670    1.9800    5.4520 ca        1 2P9     -0.118000
     14 C14         3.3900   -0.4120    3.0220 cd        1 2P9     -0.151300
     15 C15         4.6270   -0.9060    3.5750 ca        1 2P9      0.076000
     16 C16         4.8110   -1.0640    4.9600 ca        1 2P9     -0.132500
     17 C17         5.9830   -1.6230    5.4550 ca        1 2P9     -0.097000
     18 C18         6.9940   -2.0340    4.5770 ca        1 2P9     -0.215300
     19 C19         8.2380   -2.6380    5.1230 c3        1 2P9      0.182100
     20 N20         8.0360   -4.1110    5.3590 n4        1 2P9     -0.625800
     21 C21         9.0630   -4.6960    6.2900 c         1 2P9      0.198000
     22 C22        10.3980   -4.6980    5.7510 ca        1 2P9     -0.238600
     23 C23        10.6480   -5.0880    4.4100 ca        1 2P9     -0.075000
     24 C24        11.9230   -5.1470    3.9010 ca        1 2P9     -0.148000
     25 C25        13.0420   -4.8000    4.7050 ca        1 2P9      0.041500
     26 C26        14.3500   -4.8600    4.1900 cc        1 2P9      0.127200
     27 C27        15.6270   -4.5870    4.7250 cd        1 2P9     -0.139300
     28 C28        16.5710   -4.8470    3.7070 cd        1 2P9     -0.319300
     29 C29        15.8470   -5.2750    2.5710 cc        1 2P9      0.342200
     30 C30        16.3080   -5.7080    1.1640 c         1 2P9      0.826100
     31 O31        15.4140   -6.0370    0.3550 o         1 2P9     -0.759800
     32 O32        17.5480   -5.6790    0.9940 o         1 2P9     -0.759800
     33 O33        14.5070   -5.2860    2.8490 os        1 2P9     -0.309800
     34 C34        12.8060   -4.4000    6.0420 ca        1 2P9     -0.182000
     35 C35        11.5190   -4.3620    6.5530 ca        1 2P9      0.109400
     36 CL3        11.3230   -3.8460    8.1620 cl        1 2P9     -0.073400
     37 S37         8.5510   -5.2010    7.6530 s         1 2P9     -0.144400
     38 C38         6.8270   -1.8660    3.1970 ca        1 2P9     -0.097000
     39 C39         5.6550   -1.3080    2.7000 ca        1 2P9     -0.132500
     40 C40         2.7610   -0.8710    1.8600 cc        1 2P9     -0.189300
     41 O41         0.8720   -1.2300   -0.2130 o         1 2P9     -0.791800
     42 H2          4.9240    1.5350    4.1660 ha        1 2P9      0.160000
     43 H3          1.2680    3.3000    7.0800 ha        1 2P9      0.151000
     44 H4          0.7170    1.6790    5.2940 ha        1 2P9      0.176000
     45 H5          4.0190   -0.7440    5.6560 ha        1 2P9      0.163000
     46 H6          6.1170   -1.7340    6.5420 ha        1 2P9      0.133000
     47 H7          8.5090   -2.1680    6.1120 hx        1 2P9      0.104200
     48 H8          9.1100   -2.5200    4.4190 hx        1 2P9      0.104200
     49 H9          7.1020   -4.2520    5.7800 hn        1 2P9      0.445800
     50 H10         9.8150   -5.4020    3.7610 ha        1 2P9      0.120000
     51 H11        12.1070   -5.4720    2.8610 ha        1 2P9      0.186000
     52 H12        15.8350   -4.2400    5.7350 ha        1 2P9      0.149000
     53 H13        17.6530   -4.7480    3.7540 ha        1 2P9      0.181000
     54 H15        13.6640   -4.1220    6.6740 ha        1 2P9      0.162000
     55 H16         7.6260   -2.1650    2.5020 ha        1 2P9      0.133000
     56 H17         5.5180   -1.1780    1.6140 ha        1 2P9      0.163000
     57 H18         3.0920   -1.6000    1.1260 ha        1 2P9      0.185000
     58 H202        8.0580   -4.5900    4.4530 hn        1 2P9      0.445800
@<TRIPOS>BOND
     1    1    2 1
     2    2    3 1
     3    2   41 1
     4    3    4 2
     5    3   40 1
     6    4    5 1
     7    5    6 1
     8    5   14 1
     9    6    7 ar
    10    6   13 ar
    11    7    8 ar
    12    7   42 1
    13    8    9 1
    14    8   10 ar
    15   10   11 1
    16   10   12 ar
    17   12   13 ar
    18   12   43 1
    19   13   44 1
    20   14   15 1
    21   14   40 2
    22   15   16 ar
    23   15   39 ar
    24   16   17 ar
    25   16   45 1
    26   17   18 ar
    27   17   46 1
    28   18   19 1
    29   18   38 ar
    30   19   20 1
    31   19   47 1
    32   19   48 1
    33   20   21 1
    34   20   49 1
    35   20   58 1
    36   21   22 1
    37   21   37 2
    38   22   23 ar
    39   22   35 ar
    40   23   24 ar
    41   23   50 1
    42   24   25 ar
    43   24   51 1
    44   25   26 1
    45   25   34 ar
    46   26   27 2
    47   26   33 1
    48   27   28 1
    49   27   52 1
    50   28   29 2
    51   28   53 1
    52   29   30 1
    53   29   33 1
    54   30   31 1
    55   30   32 1
    56   34   35 ar
    57   34   54 1
    58   35   36 1
    59   38   39 ar
    60   38   55 1
    61   39   56 1
    62   40   57 1
@<TRIPOS>SUBSTRUCTURE
     1 2P9         1 TEMP              0 ****  ****    0 ROOT
