@<TRIPOS>MOLECULE
2PA
   11    10     1     0     0
SMALL
bcc


@<TRIPOS>ATOM
      1 N4         -0.0030   -0.1480   -0.1740 nz        1 2PA     -0.839700
      2 N5          2.2880    1.4840   -0.5650 nz        1 2PA     -0.839700
      3 O1          2.2510   -1.0330   -0.9790 o         1 2PA     -0.616500
      4 P2          1.7820   -0.1260    0.0640 p5        1 2PA      1.136600
      5 O3          1.9050    0.0480    1.5090 o         1 2PA     -0.616500
      6 HN41       -0.4560   -0.2920    0.7330 hn        1 2PA      0.462467
      7 HN42       -0.4260    0.6730   -0.5900 hn        1 2PA      0.462467
      8 HN51        1.5610    2.0890   -0.9290 hn        1 2PA      0.462467
      9 HN52        2.7580    2.0000    0.1860 hn        1 2PA      0.462467
     10 H43        -0.2470   -0.9450   -0.7710 hn        1 2PA      0.462467
     11 H53         2.9690    1.3460   -1.3180 hn        1 2PA      0.462467
@<TRIPOS>BOND
     1    1    4 1   
     2    1    6 1   
     3    1    7 1   
     4    1   10 1   
     5    2    4 1   
     6    2    8 1   
     7    2    9 1   
     8    2   11 1   
     9    3    4 1   
    10    4    5 1   
@<TRIPOS>SUBSTRUCTURE
     1 2PA         1 TEMP              0 ****  ****    0 ROOT
