@<TRIPOS>MOLECULE
2PB
   18    18     1     0     0
SMALL
bcc


@<TRIPOS>ATOM
      1 C1          0.0040   -0.4730    0.0750 ca        1 2PB     -0.134000
      2 C2          1.3880   -0.3370    0.0730 ca        1 2PB     -0.220000
      3 C3          2.0640   -0.2140    1.2890 ca        1 2PB     -0.113000
      4 C4          1.3930   -0.2100    2.5120 ca        1 2PB     -0.128600
      5 C5         -0.0180   -0.3340    2.5040 ca        1 2PB      0.229100
      6 C6         -0.7000   -0.4780    1.2760 ca        1 2PB     -0.261000
      7 C7          2.2620   -0.0750    3.7540 c         1 2PB      0.933200
      8 O8          2.7290   -1.1280    4.2780 o         1 2PB     -0.849300
      9 O9         -0.7190   -0.3390    3.6580 os        1 2PB     -0.454500
     10 P1         -2.3250    0.1260    3.6260 p5        1 2PB      1.356800
     11 O11        -3.1200   -0.9090    2.9230 o         1 2PB     -0.852500
     12 O12         2.5680    1.0880    4.1480 o         1 2PB     -0.849300
     13 O13        -2.6950    0.5610    4.9870 o         1 2PB     -0.852500
     14 H1         -0.5420   -0.5830   -0.8720 ha        1 2PB      0.083000
     15 H2          1.9450   -0.3300   -0.8720 ha        1 2PB      0.080000
     16 H3          3.1590   -0.1130    1.2940 ha        1 2PB      0.110000
     17 H6         -1.7930   -0.6270    1.2690 ha        1 2PB      0.163000
     18 HP1        -2.2180    1.1810    2.8310 hp        1 2PB     -0.240400
@<TRIPOS>BOND
     1    1    2 ar  
     2    1    6 ar  
     3    1   14 1   
     4    2    3 ar  
     5    2   15 1   
     6    3    4 ar  
     7    3   16 1   
     8    4    5 ar  
     9    4    7 1   
    10    5    6 ar  
    11    5    9 1   
    12    6   17 1   
    13    7    8 1   
    14    7   12 1   
    15    9   10 1   
    16   10   11 1   
    17   10   13 1   
    18   10   18 1   
@<TRIPOS>SUBSTRUCTURE
     1 2PB         1 TEMP              0 ****  ****    0 ROOT
