@<TRIPOS>MOLECULE
molecule
   18    18     1     0     0
SMALL
bcc


@<TRIPOS>ATOM
      1 C1           0.0000     0.0000     0.0000 ca         1 2PB      -0.122000
      2 C2           1.3950     0.0000     0.0000 ca         1 2PB      -0.233000
      3 C3           2.0920     0.0000     1.2090 ca         1 2PB      -0.083000
      4 C4           1.3950    -0.0010     2.4170 ca         1 2PB      -0.141600
      5 C5          -0.0000    -0.0010     2.4170 ca         1 2PB       0.267100
      6 C6          -0.6980    -0.0010     1.2080 ca         1 2PB      -0.267000
      7 C7           2.1470    -0.0000     3.6830 c          1 2PB       0.887200
      8 O8           1.4930    -0.0000     4.7910 o          1 2PB      -0.842300
      9 O9          -0.7000     0.0010     3.5860 os         1 2PB      -0.423500
     10 P1          -2.1790    -0.6750     3.7800 p5         1 2PB       1.249800
     11 O11         -2.0990    -2.1420     3.4010 o          1 2PB      -0.817500
     12 O12          3.4340     0.0000     3.6390 o          1 2PB      -0.842300
     13 O13         -2.6060    -0.3110     5.1890 o          1 2PB      -0.817500
     14 H1          -0.5420     0.0000    -0.9380 ha         1 2PB       0.084000
     15 H2           1.9370     0.0010    -0.9380 ha         1 2PB       0.082000
     16 H3           3.1750    -0.0000     1.2090 ha         1 2PB       0.136000
     17 H6          -1.7810    -0.0010     1.2080 ha         1 2PB       0.123000
     18 HP1         -3.0820    -0.0650     2.8920 hp         1 2PB      -0.239400
@<TRIPOS>BOND
     1     1     2 ar
     2     1     6 ar
     3     1    14 1
     4     2     3 ar
     5     2    15 1
     6     3     4 ar
     7     3    16 1
     8     4     5 ar
     9     4     7 1
    10     5     6 ar
    11     5     9 1
    12     6    17 1
    13     7     8 1
    14     7    12 1
    15     9    10 1
    16    10    11 1
    17    10    13 1
    18    18    10 1
@<TRIPOS>SUBSTRUCTURE
     1 2PB         1 TEMP              0 ****  ****    0 ROOT
