@<TRIPOS>MOLECULE
molecule
   15    15     1     0     0
SMALL
bcc


@<TRIPOS>ATOM
      1 N1           0.0000     0.0000     0.0000 nu         1 2PC      -0.212100
      2 C2           1.2730     0.0000     0.0000 ce         1 2PC       0.326300
      3 C3           1.8210     0.0000     1.4090 c3         1 2PC      -0.182700
      4 C4           0.6080     0.4230     2.2750 c3         1 2PC      -0.108400
      5 C5          -0.5630     0.0040     1.3560 c3         1 2PC      -0.041700
      6 C6           2.1110    -0.0070    -1.2240 c          1 2PC       0.783300
      7 O7           1.5820    -0.0120    -2.3270 o          1 2PC      -0.726800
      8 O8           3.3290    -0.0020    -1.1310 o          1 2PC      -0.726800
      9 HN1         -0.5000    -0.4370    -0.7480 hn         1 2PC       0.341700
     10 H31          2.1560    -0.9920     1.6860 hc         1 2PC       0.113700
     11 H32          2.6240     0.7210     1.5040 hc         1 2PC       0.113700
     12 H41          0.5860    -0.1270     3.2080 hc         1 2PC       0.078700
     13 H42          0.6050     1.4930     2.4440 hc         1 2PC       0.078700
     14 H51         -0.9110    -0.9870     1.6200 h1         1 2PC       0.081200
     15 H52         -1.3700     0.7240     1.4240 h1         1 2PC       0.081200
@<TRIPOS>BOND
     1     1     2 2   
     2     1     5 1   
     3     1     9 1   
     4     2     3 1   
     5     2     6 1   
     6     3     4 1   
     7     3    10 1   
     8     3    11 1   
     9     4     5 1   
    10     4    12 1   
    11     4    13 1   
    12     5    14 1   
    13     5    15 1   
    14     6     7 1   
    15     6     8 1   
@<TRIPOS>SUBSTRUCTURE
     1 2PC         1 TEMP              0 ****  ****    0 ROOT
