@<TRIPOS>MOLECULE
molecule
   57    60     1     0     0
SMALL
bcc


@<TRIPOS>ATOM
      1 O30          0.0000     0.0000     0.0000 o          1 2PD      -0.613800
      2 S33          1.4200     0.0000     0.0000 sy         1 2PD       1.403200
      3 O29          2.2080    -0.9720    -0.6750 o          1 2PD      -0.613800
      4 C12          1.9380     0.0000     1.6920 ca         1 2PD      -0.305500
      5 C8           1.3480    -0.8220     2.6170 ca         1 2PD      -0.036000
      6 C11          1.7860    -0.7970     3.9370 ca         1 2PD       0.118100
      7 O32          1.2070    -1.6090     4.8620 os         1 2PD      -0.324900
      8 C20          1.7060    -1.5300     6.1980 c3         1 2PD       0.127700
      9 C7           2.8140     0.0560     4.3090 ca         1 2PD      -0.171000
     10 N26          1.9090     1.4980    -0.5590 nu         1 2PD      -0.838100
     11 C16          3.1060     1.9820    -0.0560 ce         1 2PD       0.762500
     12 N24          3.5460     1.6980     1.1310 nf         1 2PD      -0.668100
     13 C10          2.9730     0.8720     2.0510 ca         1 2PD       0.211400
     14 C6           3.4070     0.8860     3.3820 ca         1 2PD      -0.079000
     15 C14          3.9190     2.8610    -0.9110 cc         1 2PD      -0.296800
     16 C15          5.1380     3.3850    -0.4650 cd         1 2PD       0.130500
     17 O31          5.6120     3.1010     0.7690 oh         1 2PD      -0.482100
     18 C17          3.5000     3.2070    -2.2240 c          1 2PD       0.670700
     19 O28          2.4490     2.7760    -2.6680 o          1 2PD      -0.651500
     20 N27          4.2740     4.0130    -2.9730 n          1 2PD      -0.125800
     21 C22          3.8300     4.3630    -4.3250 c3         1 2PD       0.108000
     22 C21          2.9840     5.6360    -4.2710 c3         1 2PD      -0.097400
     23 C23          2.5210     6.0000    -5.6830 c3         1 2PD      -0.074700
     24 C19          1.5830     4.9120    -6.2080 c3         1 2PD      -0.090100
     25 C18          1.7790     7.3370    -5.6470 c3         1 2PD      -0.090100
     26 N25          5.3860     4.4880    -2.5450 nc         1 2PD      -0.415300
     27 C13          5.8610     4.2240    -1.3520 cd         1 2PD       0.360200
     28 C9           7.1580     4.8050    -0.9270 ca         1 2PD      -0.123900
     29 C4           8.2240     4.8650    -1.8230 ca         1 2PD      -0.097000
     30 C2           9.4280     5.4060    -1.4230 ca         1 2PD      -0.134000
     31 C5           7.3130     5.2990     0.3660 ca         1 2PD      -0.097000
     32 C3           8.5220     5.8390     0.7560 ca         1 2PD      -0.134000
     33 C1           9.5790     5.8900    -0.1360 ca         1 2PD      -0.114000
     34 H8           0.6240    -1.5630     2.3000 ha         1 2PD       0.156000
     35 H20          1.1610    -2.2220     6.8280 h1         1 2PD       0.042700
     36 H20A         2.7590    -1.7850     6.2060 h1         1 2PD       0.042700
     37 H20B         1.5760    -0.5220     6.5730 h1         1 2PD       0.042700
     38 H7           3.1520     0.0730     5.3380 ha         1 2PD       0.140000
     39 HN26         1.3660     2.0170    -1.2200 hn         1 2PD       0.502800
     40 H6           4.2090     1.5490     3.6830 ha         1 2PD       0.150000
     41 HO31         6.2370     2.3980     0.7120 ho         1 2PD       0.448000
     42 H22          3.2380     3.5520    -4.7310 h1         1 2PD       0.082200
     43 H22A         4.6940     4.5300    -4.9570 h1         1 2PD       0.082200
     44 H21          3.5760     6.4470    -3.8650 hc         1 2PD       0.058200
     45 H21A         2.1200     5.4680    -3.6400 hc         1 2PD       0.058200
     46 H23          3.3810     6.0810    -6.3360 hc         1 2PD       0.048700
     47 H19          0.8940     4.6190    -5.4250 hc         1 2PD       0.037867
     48 H19A         2.1650     4.0520    -6.5180 hc         1 2PD       0.037867
     49 H19B         1.0250     5.2930    -7.0550 hc         1 2PD       0.037867
     50 H18          2.4350     8.1030    -5.2480 hc         1 2PD       0.037867
     51 H18A         1.4750     7.6090    -6.6500 hc         1 2PD       0.037867
     52 H18B         0.9030     7.2480    -5.0160 hc         1 2PD       0.037867
     53 H4           8.1080     4.4860    -2.8320 ha         1 2PD       0.146000
     54 H2          10.2580     5.4510    -2.1180 ha         1 2PD       0.135500
     55 H5           6.4860     5.2600     1.0650 ha         1 2PD       0.146000
     56 H3           8.6440     6.2210     1.7620 ha         1 2PD       0.135500
     57 H1          10.5260     6.3150     0.1740 ha         1 2PD       0.133000
@<TRIPOS>BOND
     1     1     2 2
     2     2     3 2
     3     2     4 1
     4     2    10 1
     5     4     5 ar
     6     4    13 ar
     7     5     6 ar
     8     6     7 1
     9     6     9 ar
    10     7     8 1
    11     9    14 ar
    12    10    11 1
    13    11    12 2
    14    11    15 1
    15    12    13 1
    16    13    14 ar
    17    15    16 2
    18    15    18 1
    19    16    17 1
    20    16    27 1
    21    18    19 2
    22    18    20 1
    23    20    21 1
    24    20    26 1
    25    21    22 1
    26    22    23 1
    27    23    24 1
    28    23    25 1
    29    26    27 2
    30    27    28 1
    31    28    29 ar
    32    28    31 ar
    33    29    30 ar
    34    30    33 ar
    35    31    32 ar
    36    32    33 ar
    37     5    34 1
    38     8    35 1
    39     8    36 1
    40     8    37 1
    41     9    38 1
    42    10    39 1
    43    14    40 1
    44    17    41 1
    45    21    42 1
    46    21    43 1
    47    22    44 1
    48    22    45 1
    49    23    46 1
    50    24    47 1
    51    24    48 1
    52    24    49 1
    53    25    50 1
    54    25    51 1
    55    25    52 1
    56    29    53 1
    57    30    54 1
    58    31    55 1
    59    32    56 1
    60    33    57 1
@<TRIPOS>SUBSTRUCTURE
     1 2PD         1 TEMP              0 ****  ****    0 ROOT
