@<TRIPOS>MOLECULE
molecule
   66    65     1     0     0
SMALL
bcc


@<TRIPOS>ATOM
      1 O1           0.0000     0.0000     0.0000 oh         1 2PE      -0.598800
      2 C2           1.4290     0.0000     0.0000 c3         1 2PE       0.142400
      3 C3           1.9400     0.0000     1.4410 c3         1 2PE       0.128400
      4 O4           1.4650    -1.1670     2.1150 os         1 2PE      -0.382100
      5 C5           1.9730    -1.1090     3.4490 c3         1 2PE       0.126400
      6 C6           1.4980    -2.3370     4.2290 c3         1 2PE       0.126400
      7 O7           1.9750    -3.5220     3.5890 os         1 2PE      -0.384600
      8 C8           1.5010    -4.6280     4.3600 c3         1 2PE       0.126400
      9 C9           1.9780    -5.9340     3.7260 c3         1 2PE       0.126400
     10 O10          3.4070    -5.9530     3.6940 os         1 2PE      -0.384600
     11 C11          3.7900    -7.1920     3.0930 c3         1 2PE       0.126400
     12 C12          5.3160    -7.2780     3.0280 c3         1 2PE       0.126400
     13 O13          5.8530    -7.2030     4.3490 os         1 2PE      -0.384100
     14 C14          7.2740    -7.2870     4.2220 c3         1 2PE       0.126400
     15 C15          7.9160    -7.2130     5.6080 c3         1 2PE       0.126400
     16 O16          7.4450    -8.2970     6.4100 os         1 2PE      -0.384100
     17 C17          8.0760    -8.1730     7.6850 c3         1 2PE       0.126400
     18 C18          7.6130    -9.3090     8.5970 c3         1 2PE       0.126400
     19 O19          7.9650   -10.5650     8.0120 os         1 2PE      -0.384600
     20 C20          7.5070   -11.5810     8.9060 c3         1 2PE       0.126400
     21 C21          7.8540   -12.9560     8.3360 c3         1 2PE       0.126400
     22 O22          9.2710   -13.0630     8.1780 os         1 2PE      -0.384600
     23 C23          9.5310   -14.3630     7.6450 c3         1 2PE       0.126400
     24 C24         11.0370   -14.5430     7.4510 c3         1 2PE       0.126400
     25 O25         11.6990   -14.4040     8.7100 os         1 2PE      -0.382100
     26 C26         13.0960   -14.5820     8.4650 c3         1 2PE       0.128400
     27 C27         13.8660   -14.4450     9.7780 c3         1 2PE       0.142400
     28 O28         13.4150   -15.4390    10.7010 oh         1 2PE      -0.598800
     29 HO1         -0.3140     0.0920    -0.8840 ho         1 2PE       0.398000
     30 H21          1.7900    -0.8840    -0.5110 h1         1 2PE       0.027700
     31 H22          1.7900     0.8840    -0.5110 h1         1 2PE       0.027700
     32 H31          1.5800     0.8840     1.9520 h1         1 2PE       0.031700
     33 H32          3.0240     0.0000     1.4400 h1         1 2PE       0.031700
     34 H51          1.6110    -0.2110     3.9350 h1         1 2PE       0.032700
     35 H52          3.0550    -1.0940     3.4230 h1         1 2PE       0.032700
     36 H61          1.8830    -2.2930     5.2400 h1         1 2PE       0.033200
     37 H62          0.4150    -2.3510     4.2550 h1         1 2PE       0.033200
     38 H81          0.4180    -4.6130     4.3850 h1         1 2PE       0.033200
     39 H82          1.8850    -4.5550     5.3700 h1         1 2PE       0.033200
     40 H91          1.6190    -6.7720     4.3110 h1         1 2PE       0.033200
     41 H92          1.5930    -6.0080     2.7160 h1         1 2PE       0.033200
     42 H111         3.3820    -7.2490     2.0910 h1         1 2PE       0.033200
     43 H112         3.4070    -8.0140     3.6860 h1         1 2PE       0.033200
     44 H121         5.6050    -8.2170     2.5720 h1         1 2PE       0.032450
     45 H122         5.6980    -6.4560     2.4350 h1         1 2PE       0.032450
     46 H141         7.6320    -6.4650     3.6140 h1         1 2PE       0.032700
     47 H142         7.5400    -8.2260     3.7510 h1         1 2PE       0.032700
     48 H151         8.9930    -7.2770     5.5120 h1         1 2PE       0.032700
     49 H152         7.6500    -6.2740     6.0790 h1         1 2PE       0.032700
     50 H171         7.8090    -7.2210     8.1290 h1         1 2PE       0.032450
     51 H172         9.1520    -8.2240     7.5620 h1         1 2PE       0.032450
     52 H181         6.5380    -9.2570     8.7210 h1         1 2PE       0.033200
     53 H182         8.0920    -9.2150     9.5640 h1         1 2PE       0.033200
     54 H201         6.4340   -11.5000     9.0250 h1         1 2PE       0.033200
     55 H202         7.9880   -11.4570     9.8690 h1         1 2PE       0.033200
     56 H211         7.5080   -13.7260     9.0140 h1         1 2PE       0.033200
     57 H212         7.3730   -13.0800     7.3730 h1         1 2PE       0.033200
     58 H231         9.1620   -15.1150     8.3320 h1         1 2PE       0.033200
     59 H232         9.0290   -14.4690     6.6900 h1         1 2PE       0.033200
     60 H241        11.2340   -15.5290     7.0470 h1         1 2PE       0.032700
     61 H242        11.4060   -13.7910     6.7650 h1         1 2PE       0.032700
     62 H261        13.4380   -13.8290     7.7650 h1         1 2PE       0.031700
     63 H262        13.2660   -15.5670     8.0470 h1         1 2PE       0.031700
     64 H271        14.9250   -14.5790     9.5910 h1         1 2PE       0.027700
     65 H272        13.6950   -13.4600    10.1960 h1         1 2PE       0.027700
     66 HO2         13.9500   -15.4140    11.4770 ho         1 2PE       0.398000
@<TRIPOS>BOND
     1     1     2 1   
     2     1    29 1   
     3     2     3 1   
     4     2    30 1   
     5     2    31 1   
     6     3     4 1   
     7     3    32 1   
     8     3    33 1   
     9     4     5 1   
    10     5     6 1   
    11     5    34 1   
    12     5    35 1   
    13     6     7 1   
    14     6    36 1   
    15     6    37 1   
    16     7     8 1   
    17     8     9 1   
    18     8    38 1   
    19     8    39 1   
    20     9    10 1   
    21     9    40 1   
    22     9    41 1   
    23    10    11 1   
    24    11    12 1   
    25    11    42 1   
    26    11    43 1   
    27    12    13 1   
    28    12    44 1   
    29    12    45 1   
    30    13    14 1   
    31    14    15 1   
    32    14    46 1   
    33    14    47 1   
    34    15    16 1   
    35    15    48 1   
    36    15    49 1   
    37    16    17 1   
    38    17    18 1   
    39    17    50 1   
    40    17    51 1   
    41    18    19 1   
    42    18    52 1   
    43    18    53 1   
    44    19    20 1   
    45    20    21 1   
    46    20    54 1   
    47    20    55 1   
    48    21    22 1   
    49    21    56 1   
    50    21    57 1   
    51    22    23 1   
    52    23    24 1   
    53    23    58 1   
    54    23    59 1   
    55    24    25 1   
    56    24    60 1   
    57    24    61 1   
    58    25    26 1   
    59    26    27 1   
    60    26    62 1   
    61    26    63 1   
    62    27    28 1   
    63    27    64 1   
    64    27    65 1   
    65    28    66 1   
@<TRIPOS>SUBSTRUCTURE
     1 2PE         1 TEMP              0 ****  ****    0 ROOT
