@<TRIPOS>MOLECULE
2PE
   66    65     1     0     0
SMALL
bcc


@<TRIPOS>ATOM
      1 O1         -1.1500    2.5840    0.1930 oh        1 2PE     -0.599800
      2 C2         -1.8590    1.5400    0.8260 c3        1 2PE      0.131400
      3 C3         -1.3630    0.1700    0.3760 c3        1 2PE      0.087400
      4 O4         -0.0280    0.0520    0.8620 os        1 2PE     -0.438600
      5 C5          0.5890   -1.1720    0.4660 c3        1 2PE      0.128400
      6 C6          1.9210   -1.2460    1.2040 c3        1 2PE      0.127400
      7 O7          1.7640   -2.2310    2.2240 os        1 2PE     -0.428600
      8 C8          2.8930   -2.2930    3.0930 c3        1 2PE      0.127400
      9 C9          2.6740   -3.4970    4.0030 c3        1 2PE      0.127400
     10 O10         3.5700   -4.5120    3.5550 os        1 2PE     -0.429600
     11 C11         3.3610   -5.7520    4.2280 c3        1 2PE      0.127400
     12 C12         4.4890   -6.6790    3.7880 c3        1 2PE      0.127400
     13 O13         5.3780   -6.7910    4.8970 os        1 2PE     -0.429600
     14 C14         6.5700   -7.4990    4.5640 c3        1 2PE      0.127400
     15 C15         7.3370   -7.6930    5.8680 c3        1 2PE      0.127400
     16 O16         7.2270   -9.0750    6.2020 os        1 2PE     -0.429600
     17 C17         7.7710   -9.3650    7.4870 c3        1 2PE      0.127400
     18 C18         7.7560  -10.8830    7.6330 c3        1 2PE      0.127400
     19 O19         9.1090  -11.3160    7.5060 os        1 2PE     -0.429600
     20 C20         9.2190  -12.7360    7.4610 c3        1 2PE      0.127400
     21 C21        10.7100  -13.0560    7.4980 c3        1 2PE      0.127400
     22 O22        10.9840  -13.5610    8.8030 os        1 2PE     -0.428600
     23 C23        12.3800  -13.7430    9.0300 c3        1 2PE      0.127400
     24 C24        12.5130  -14.4380   10.3800 c3        1 2PE      0.128400
     25 O25        12.8890  -15.7870   10.1080 os        1 2PE     -0.438600
     26 C26        12.8810  -16.6000   11.2790 c3        1 2PE      0.087400
     27 C27        13.3580  -17.9800   10.8400 c3        1 2PE      0.131400
     28 O28        14.7070  -17.9570   10.4240 oh        1 2PE     -0.599800
     29 HO1        -0.2150    2.4500    0.3940 ho        1 2PE      0.412000
     30 H21        -1.7700    1.6320    1.9410 h1        1 2PE      0.053700
     31 H22        -2.9280    1.6790    0.5130 h1        1 2PE      0.053700
     32 H31        -1.3660    0.0930   -0.7430 h1        1 2PE      0.039200
     33 H32        -2.0000   -0.6440    0.8120 h1        1 2PE      0.039200
     34 H51        -0.0660   -2.0420    0.7380 h1        1 2PE      0.045200
     35 H52         0.7550   -1.1560   -0.6430 h1        1 2PE      0.045200
     36 H61         2.7380   -1.5660    0.5050 h1        1 2PE      0.043200
     37 H62         2.1810   -0.2540    1.6600 h1        1 2PE      0.043200
     38 H81         3.8370   -2.4110    2.4970 h1        1 2PE      0.044200
     39 H82         2.9440   -1.3490    3.6980 h1        1 2PE      0.044200
     40 H91         1.6140   -3.8580    3.9370 h1        1 2PE      0.043700
     41 H92         2.9180   -3.2320    5.0660 h1        1 2PE      0.043700
     42 H111        2.3670   -6.1730    3.9230 h1        1 2PE      0.043700
     43 H112        3.3810   -5.5990    5.3400 h1        1 2PE      0.043700
     44 H121        5.0270   -6.2570    2.8980 h1        1 2PE      0.043700
     45 H122        4.0840   -7.6950    3.5370 h1        1 2PE      0.043700
     46 H141        7.1730   -6.8880    3.8420 h1        1 2PE      0.043700
     47 H142        6.3160   -8.4890    4.1000 h1        1 2PE      0.043700
     48 H151        6.9000   -7.0600    6.6850 h1        1 2PE      0.043700
     49 H152        8.4200   -7.4330    5.7270 h1        1 2PE      0.043700
     50 H171        7.1280   -8.8900    8.2750 h1        1 2PE      0.043700
     51 H172        8.8180   -8.9680    7.5650 h1        1 2PE      0.043700
     52 H181        7.1220  -11.3530    6.8350 h1        1 2PE      0.043700
     53 H182        7.3690  -11.1750    8.6440 h1        1 2PE      0.043700
     54 H201        8.6910  -13.1950    8.3390 h1        1 2PE      0.043700
     55 H202        8.7630  -13.1110    6.5070 h1        1 2PE      0.043700
     56 H211       11.3200  -12.1350    7.3010 h1        1 2PE      0.044200
     57 H212       10.9600  -13.8440    6.7390 h1        1 2PE      0.044200
     58 H231       12.8280  -14.3690    8.2130 h1        1 2PE      0.043200
     59 H232       12.8830  -12.7400    9.0550 h1        1 2PE      0.043200
     60 H241       13.3150  -13.9510   10.9960 h1        1 2PE      0.045200
     61 H242       11.5390  -14.4120   10.9390 h1        1 2PE      0.045200
     62 H261       11.8420  -16.6550   11.6970 h1        1 2PE      0.039200
     63 H262       13.5750  -16.1640   12.0460 h1        1 2PE      0.039200
     64 H271       12.7050  -18.3660   10.0130 h1        1 2PE      0.053700
     65 H272       13.3320  -18.6860   11.7120 h1        1 2PE      0.053700
     66 HO2        14.7710  -17.3050    9.7140 ho        1 2PE      0.412000
@<TRIPOS>BOND
     1    1    2 1   
     2    1   29 1   
     3    2    3 1   
     4    2   30 1   
     5    2   31 1   
     6    3    4 1   
     7    3   32 1   
     8    3   33 1   
     9    4    5 1   
    10    5    6 1   
    11    5   34 1   
    12    5   35 1   
    13    6    7 1   
    14    6   36 1   
    15    6   37 1   
    16    7    8 1   
    17    8    9 1   
    18    8   38 1   
    19    8   39 1   
    20    9   10 1   
    21    9   40 1   
    22    9   41 1   
    23   10   11 1   
    24   11   12 1   
    25   11   42 1   
    26   11   43 1   
    27   12   13 1   
    28   12   44 1   
    29   12   45 1   
    30   13   14 1   
    31   14   15 1   
    32   14   46 1   
    33   14   47 1   
    34   15   16 1   
    35   15   48 1   
    36   15   49 1   
    37   16   17 1   
    38   17   18 1   
    39   17   50 1   
    40   17   51 1   
    41   18   19 1   
    42   18   52 1   
    43   18   53 1   
    44   19   20 1   
    45   20   21 1   
    46   20   54 1   
    47   20   55 1   
    48   21   22 1   
    49   21   56 1   
    50   21   57 1   
    51   22   23 1   
    52   23   24 1   
    53   23   58 1   
    54   23   59 1   
    55   24   25 1   
    56   24   60 1   
    57   24   61 1   
    58   25   26 1   
    59   26   27 1   
    60   26   62 1   
    61   26   63 1   
    62   27   28 1   
    63   27   64 1   
    64   27   65 1   
    65   28   66 1   
@<TRIPOS>SUBSTRUCTURE
     1 2PE         1 TEMP              0 ****  ****    0 ROOT
