@<TRIPOS>MOLECULE
2PG
   15    13     1     0     0
SMALL
bcc


@<TRIPOS>ATOM
      1 C1          0.0150    0.2720    0.4170 c2        1 2PG      0.319000
      2 C2          1.5460    0.3830    0.3390 c3        1 2PG     -0.049000
      3 C3          2.2500   -0.1000    1.6520 c3        1 2PG      0.163000
      4 O1         -0.5360   -0.8640    0.2460 o         1 2PG     -0.638500
      5 O2         -0.6930    1.3070    0.6350 o         1 2PG     -0.638500
      6 O3          2.7690    0.8590    2.4040 o         1 2PG     -0.798000
      7 O1P         2.0180   -0.3930   -0.7920 oh        1 2PG     -0.469000
      8 O2P         4.6070   -0.4690   -2.3230 o         1 2PG     -1.177000
      9 O3P         2.6100   -2.0040   -2.6600 o         1 2PG     -1.177000
     10 O4P         2.5850    0.3850   -3.5620 o         1 2PG     -1.177000
     11 H2          1.5380   -1.2350   -0.7730 ho        1 2PG      0.243000
     12 H31         1.8560    1.4320    0.1020 h1        1 2PG      0.082000
     13 H32         1.4730   -0.7310    2.2100 h1        1 2PG     -0.090000
     14 H3          3.0310   -0.8680    1.3080 h1        1 2PG     -0.090000
     15 P           3.1700   -0.6310   -2.6530 p3        1 2PG      2.497000
@<TRIPOS>BOND
     1    1    2 1   
     2    1    4 1   
     3    1    5 1   
     4    2    3 1   
     5    2    7 1   
     6    2   12 1   
     7    3    6 1   
     8    3   13 1   
     9    3   14 1   
    10    7   11 1   
    11    8   15 1   
    12    9   15 1   
    13   10   15 1   
@<TRIPOS>SUBSTRUCTURE
     1 2PG         1 TEMP              0 ****  ****    0 ROOT
