@<TRIPOS>MOLECULE
molecule
   15    14     1     0     0
SMALL
bcc


@<TRIPOS>ATOM
      1 C1           0.0000     0.0000     0.0000 c          1 2PG       0.904600
      2 C2           1.5070     0.0000     0.0000 c3         1 2PG       0.091100
      3 C3           2.0150     0.0000     1.4430 c3         1 2PG       0.134400
      4 O1          -0.6030    -0.9060    -0.5240 o          1 2PG      -0.895300
      5 O2          -0.6710     1.0050     0.5820 o          1 2PG      -0.895300
      6 O3           3.4450     0.0000     1.4430 oh         1 2PG      -0.551800
      7 O1P          1.9840    -1.1650    -0.6720 os         1 2PG      -0.530200
      8 O2P          3.9930     0.1630    -1.4220 o          1 2PG      -0.938833
      9 O3P          3.4380    -1.9240    -2.7270 o          1 2PG      -0.938833
     10 O4P          1.9480     0.2340    -2.8970 o          1 2PG      -0.938833
     11 H2           1.8680     0.8850    -0.5100 h1         1 2PG       0.081700
     12 H31          1.6540    -0.8850     1.9530 h1         1 2PG      -0.016300
     13 H32          1.6540     0.8840     1.9530 h1         1 2PG      -0.016300
     14 H3           3.7590     0.0250     2.3320 ho         1 2PG       0.308000
     15 P            2.8650    -0.6550    -1.9190 p5         1 2PG       1.200900
@<TRIPOS>BOND
     1     1     2 1
     2     1     4 1
     3     1     5 1
     4     2     3 1
     5     2     7 1
     6     2    11 1
     7     3     6 1
     8     3    12 1
     9     3    13 1
    10    15     7 1
    11    15     8 1
    12    15     9 1
    13    15    10 1
    14     6    14 1
@<TRIPOS>SUBSTRUCTURE
     1 2PG         1 TEMP              0 ****  ****    0 ROOT
