@<TRIPOS>MOLECULE
molecule
   53    55     1     0     0
SMALL
bcc


@<TRIPOS>ATOM
      1 C7           0.0000     0.0000     0.0000 ca         1 2PJ      -0.119000
      2 C6           1.3940     0.0000     0.0000 ca         1 2PJ      -0.125000
      3 C1           2.0360     0.0000     6.1090 c3         1 2PJ      -0.020100
      4 C5           2.0930     0.0000     1.1690 ca         1 2PJ      -0.110000
      5 C4           1.4000     0.0000     2.3900 ca         1 2PJ      -0.152300
      6 C3           2.0850    -0.0000     3.6200 ca         1 2PJ      -0.074000
      7 C2           1.3460     0.0000     4.7700 ca         1 2PJ      -0.216600
      8 C8          -0.7020     0.0010     1.1660 ca         1 2PJ      -0.162300
      9 C9          -0.0160     0.0010     2.3930 ca         1 2PJ       0.416600
     10 N10         -0.6800     0.0020     3.5540 nb         1 2PJ      -0.675000
     11 C11         -0.0450     0.0010     4.7010 ca         1 2PJ       0.437200
     12 C12          2.2710     1.4420     6.5630 c3         1 2PJ      -0.041400
     13 C13          0.9440     2.1170     6.7970 ca         1 2PJ      -0.098300
     14 C14          0.6000     3.2420     6.0660 ca         1 2PJ       0.119900
     15 F15          1.4550     3.7350     5.1440 f          1 2PJ      -0.136900
     16 C16         -0.6180     3.8620     6.2820 ca         1 2PJ      -0.133000
     17 C17         -1.4920     3.3580     7.2270 ca         1 2PJ      -0.141000
     18 C18         -1.1490     2.2340     7.9570 ca         1 2PJ       0.125900
     19 C19          0.0680     1.6100     7.7370 ca         1 2PJ      -0.144000
     20 F20         -2.0030     1.7420     8.8810 f          1 2PJ      -0.134900
     21 C21          3.0800     1.4440     7.8610 c3         1 2PJ       0.139000
     22 N22          3.4070     2.8230     8.2320 ns         1 2PJ      -0.575900
     23 C23          4.1200     3.0700     9.3480 c          1 2PJ       0.754100
     24 O24          4.4920     2.1480    10.0470 o          1 2PJ      -0.619000
     25 O25          4.4210     4.3370     9.6880 os         1 2PJ      -0.436900
     26 C26          5.1920     4.5280    10.9030 c3         1 2PJ       0.178800
     27 C27          6.5350     3.8080    10.7740 c3         1 2PJ      -0.105433
     28 C28          5.4330     6.0230    11.1240 c3         1 2PJ      -0.105433
     29 C29          4.4190     3.9550    12.0930 c3         1 2PJ      -0.105433
     30 H1          -0.5330    -0.0000    -0.9430 ha         1 2PJ       0.134000
     31 H2           1.9280    -0.0010    -0.9420 ha         1 2PJ       0.131000
     32 H3           1.4150    -0.5100     6.8350 hc         1 2PJ       0.057200
     33 H4           2.9880    -0.5110     6.0250 hc         1 2PJ       0.057200
     34 H5           3.1760     0.0000     1.1560 ha         1 2PJ       0.134000
     35 H6           3.1390    -0.2520     3.6540 ha         1 2PJ       0.141000
     36 H7          -1.7850     0.0010     1.1490 ha         1 2PJ       0.149000
     37 H8          -0.6180    -0.0030     5.6200 h4         1 2PJ       0.025100
     38 H9           2.8170     1.9770     5.7960 hc         1 2PJ       0.080700
     39 H10         -0.8870     4.7420     5.7100 ha         1 2PJ       0.155000
     40 H11         -2.4450     3.8450     7.3970 ha         1 2PJ       0.154000
     41 H12          0.3370     0.7300     8.3090 ha         1 2PJ       0.154000
     42 H13          2.4970     0.9870     8.6510 h1         1 2PJ       0.056700
     43 H14          3.9950     0.8820     7.7170 h1         1 2PJ       0.056700
     44 H15          3.1290     3.5790     7.6380 hn         1 2PJ       0.326500
     45 H16          6.8870     3.8820     9.7520 hc         1 2PJ       0.049478
     46 H17          7.2560     4.2670    11.4390 hc         1 2PJ       0.049478
     47 H18          6.4120     2.7650    11.0390 hc         1 2PJ       0.049478
     48 H19          5.9800     6.4290    10.2820 hc         1 2PJ       0.049478
     49 H20          6.0080     6.1650    12.0310 hc         1 2PJ       0.049478
     50 H21          4.4810     6.5320    11.2160 hc         1 2PJ       0.049478
     51 H22          3.3590     4.1290    11.9520 hc         1 2PJ       0.049478
     52 H23          4.6040     2.8900    12.1660 hc         1 2PJ       0.049478
     53 H24          4.7460     4.4410    13.0040 hc         1 2PJ       0.049478
@<TRIPOS>BOND
     1     1     2 ar  
     2     1     8 ar  
     3     2     4 ar  
     4     8     9 ar  
     5     4     5 ar  
     6     9     5 ar  
     7     9    10 ar  
     8     5     6 ar  
     9    10    11 ar  
    10     6     7 ar  
    11    11     7 ar  
    12     7     3 1   
    13    22    21 1   
    14    22    23 1   
    15    24    23 2   
    16    21    12 1   
    17    23    25 1   
    18    12     3 1   
    19    12    13 1   
    20    25    26 1   
    21    29    26 1   
    22    13    19 ar  
    23    13    14 ar  
    24    19    18 ar  
    25    26    27 1   
    26    26    28 1   
    27    15    14 1   
    28    14    16 ar  
    29    18    20 1   
    30    18    17 ar  
    31    16    17 ar  
    32     1    30 1   
    33     2    31 1   
    34     3    32 1   
    35     3    33 1   
    36     4    34 1   
    37     6    35 1   
    38     8    36 1   
    39    11    37 1   
    40    12    38 1   
    41    16    39 1   
    42    17    40 1   
    43    19    41 1   
    44    21    42 1   
    45    21    43 1   
    46    22    44 1   
    47    27    45 1   
    48    27    46 1   
    49    27    47 1   
    50    28    48 1   
    51    28    49 1   
    52    28    50 1   
    53    29    51 1   
    54    29    52 1   
    55    29    53 1   
@<TRIPOS>SUBSTRUCTURE
     1 2PJ         1 TEMP              0 ****  ****    0 ROOT
