@<TRIPOS>MOLECULE
2PJ
   53    55     1     0     0
SMALL
bcc


@<TRIPOS>ATOM
      1 C7           0.0000     0.0000     0.0000 ca         1 2PJ      -0.094000
      2 C6           1.3940     0.0000     0.0000 ca         1 2PJ      -0.095000
      3 C1           2.0360     0.0000     6.1090 c3         1 2PJ       0.046900
      4 C5           2.0930     0.0000     1.1690 ca         1 2PJ      -0.083000
      5 C4           1.4000     0.0000     2.3900 ca         1 2PJ      -0.145300
      6 C3           2.0850    -0.0000     3.6200 ca         1 2PJ      -0.050000
      7 C2           1.3460     0.0000     4.7700 ca         1 2PJ      -0.218600
      8 C8          -0.7020     0.0010     1.1660 ca         1 2PJ      -0.138300
      9 C9          -0.0160     0.0010     2.3930 ca         1 2PJ       0.370600
     10 N10         -0.6800     0.0020     3.5540 nb         1 2PJ      -0.562000
     11 C11         -0.0450     0.0010     4.7010 ca         1 2PJ       0.408200
     12 C12          2.2710     1.4420     6.5630 c3         1 2PJ      -0.009400
     13 C13          0.9440     2.1170     6.7970 ca         1 2PJ      -0.102300
     14 C14          0.6000     3.2420     6.0660 ca         1 2PJ       0.096900
     15 F15          1.4550     3.7350     5.1440 f          1 2PJ      -0.123900
     16 C16         -0.6180     3.8620     6.2820 ca         1 2PJ      -0.097000
     17 C17         -1.4920     3.3580     7.2270 ca         1 2PJ      -0.105000
     18 C18         -1.1490     2.2340     7.9570 ca         1 2PJ       0.102900
     19 C19          0.0680     1.6100     7.7370 ca         1 2PJ      -0.111000
     20 F20         -2.0030     1.7420     8.8810 f          1 2PJ      -0.122900
     21 C21          3.0800     1.4440     7.8610 c3         1 2PJ       0.065000
     22 N22          3.4070     2.8230     8.2320 ns         1 2PJ      -0.182900
     23 C23          4.1200     3.0700     9.3480 c          1 2PJ       0.685100
     24 O24          4.4920     2.1480    10.0470 o          1 2PJ      -0.665000
     25 O25          4.4210     4.3370     9.6880 os         1 2PJ      -0.417900
     26 C26          5.1920     4.5280    10.9030 c3         1 2PJ       0.195800
     27 C27          6.5350     3.8080    10.7740 c3         1 2PJ      -0.028100
     28 C28          5.4330     6.0230    11.1240 c3         1 2PJ      -0.028100
     29 C29          4.4190     3.9550    12.0930 c3         1 2PJ      -0.028100
     30 H1          -0.5330    -0.0000    -0.9430 ha         1 2PJ       0.104000
     31 H2           1.9280    -0.0010    -0.9420 ha         1 2PJ       0.103000
     32 H3           1.4150    -0.5100     6.8350 hc         1 2PJ       0.027200
     33 H4           2.9880    -0.5110     6.0250 hc         1 2PJ       0.027200
     34 H5           3.1760     0.0000     1.1560 ha         1 2PJ       0.107000
     35 H6           3.1390    -0.2520     3.6540 ha         1 2PJ       0.115000
     36 H7          -1.7850     0.0010     1.1490 ha         1 2PJ       0.118000
     37 H8          -0.6180    -0.0030     5.6200 h4         1 2PJ      -0.015900
     38 H9           2.8170     1.9770     5.7960 hc         1 2PJ       0.052700
     39 H10         -0.8870     4.7420     5.7100 ha         1 2PJ       0.125000
     40 H11         -2.4450     3.8450     7.3970 ha         1 2PJ       0.125000
     41 H12          0.3370     0.7300     8.3090 ha         1 2PJ       0.133000
     42 H13          2.4970     0.9870     8.6510 h1         1 2PJ       0.030700
     43 H14          3.9950     0.8820     7.7170 h1         1 2PJ       0.030700
     44 H15          3.1290     3.5790     7.6380 hn         1 2PJ       0.181500
     45 H16          6.8870     3.8820     9.7520 hc         1 2PJ       0.018811
     46 H17          7.2560     4.2670    11.4390 hc         1 2PJ       0.018811
     47 H18          6.4120     2.7650    11.0390 hc         1 2PJ       0.018811
     48 H19          5.9800     6.4290    10.2820 hc         1 2PJ       0.018811
     49 H20          6.0080     6.1650    12.0310 hc         1 2PJ       0.018811
     50 H21          4.4810     6.5320    11.2160 hc         1 2PJ       0.018811
     51 H22          3.3590     4.1290    11.9520 hc         1 2PJ       0.018811
     52 H23          4.6040     2.8900    12.1660 hc         1 2PJ       0.018811
     53 H24          4.7460     4.4410    13.0040 hc         1 2PJ       0.018811
@<TRIPOS>BOND
     1     1     2 ar  
     2     1     8 ar  
     3     1    30 1   
     4     2     4 ar  
     5     2    31 1   
     6     3     7 1   
     7     3    12 1   
     8     3    32 1   
     9     3    33 1   
    10     4     5 ar  
    11     4    34 1   
    12     5     6 ar  
    13     5     9 ar  
    14     6     7 ar  
    15     6    35 1   
    16     7    11 ar  
    17     8     9 ar  
    18     8    36 1   
    19     9    10 ar  
    20    10    11 ar  
    21    11    37 1   
    22    12    13 1   
    23    12    21 1   
    24    12    38 1   
    25    13    14 ar  
    26    13    19 ar  
    27    14    15 1   
    28    14    16 ar  
    29    16    17 ar  
    30    16    39 1   
    31    17    18 ar  
    32    17    40 1   
    33    18    19 ar  
    34    18    20 1   
    35    19    41 1   
    36    21    22 1   
    37    21    42 1   
    38    21    43 1   
    39    22    23 1   
    40    22    44 1   
    41    23    24 2   
    42    23    25 1   
    43    25    26 1   
    44    26    27 1   
    45    26    28 1   
    46    26    29 1   
    47    27    45 1   
    48    27    46 1   
    49    27    47 1   
    50    28    48 1   
    51    28    49 1   
    52    28    50 1   
    53    29    51 1   
    54    29    52 1   
    55    29    53 1   
@<TRIPOS>SUBSTRUCTURE
     1 2PJ         1 TEMP              0 ****  ****    0 ROOT
