@<TRIPOS>MOLECULE
2PK
   26    27     1     0     0
SMALL
bcc


@<TRIPOS>ATOM
      1 OAB          0.0000     0.0000     0.0000 o          1 2PK      -0.397100
      2 CAN          1.2210     0.0000     0.0000 c          1 2PK       0.634700
      3 NAI          1.9190     0.0000     1.1290 ne         1 2PK      -0.393100
      4 CAM          3.2200    -0.0010     0.9790 cf         1 2PK       0.229500
      5 NAA          4.1690    -0.0030     1.9500 nz         1 2PK       0.241400
      6 SAJ          3.4640    -0.0010    -0.7770 sx         1 2PK      -0.223600
      7 CAO          1.9540    -0.0050    -1.1900 ce         1 2PK      -0.236400
      8 CAD          1.4020    -0.0120    -2.5910 c3         1 2PK       0.085100
      9 CAL          1.1010    -1.4290    -3.0070 ca         1 2PK      -0.171300
     10 CAG         -0.1480    -1.9700    -2.7600 ca         1 2PK      -0.069000
     11 CAE         -0.4260    -3.2700    -3.1380 ca         1 2PK      -0.127500
     12 CAK          0.5480    -4.0300    -3.7680 ca         1 2PK       0.159100
     13 OAC          0.2770    -5.3080    -4.1420 oh         1 2PK      -0.488100
     14 CAF          1.7990    -3.4850    -4.0160 ca         1 2PK      -0.127500
     15 CAH          2.0710    -2.1830    -3.6390 ca         1 2PK      -0.069000
     16 H1           4.7280    -0.8290     1.8690 hn         1 2PK       0.203133
     17 H2           3.7280     0.0150     2.8480 hn         1 2PK       0.203133
     18 H3           0.4920     0.5750    -2.6230 hc         1 2PK       0.057700
     19 H4           2.1310     0.4160    -3.2690 hc         1 2PK       0.057700
     20 H5          -0.9080    -1.3760    -2.2680 ha         1 2PK       0.110000
     21 H6          -1.4040    -3.6940    -2.9450 ha         1 2PK       0.128000
     22 H7           0.4990    -5.8960    -3.4390 ho         1 2PK       0.412000
     23 H8           2.5610    -4.0760    -4.5100 ha         1 2PK       0.128000
     24 H9           3.0480    -1.7570    -3.8320 ha         1 2PK       0.110000
     25 H10          4.5720    -0.0030    -1.5080 hs         1 2PK       0.337000
     26 HAA3         4.7510     0.8050     1.8490 hn         1 2PK       0.203133
@<TRIPOS>BOND
     1     1     2 2   
     2     2     3 1   
     3     2     7 1   
     4     3     4 2   
     5     4     5 1   
     6     4     6 1   
     7     5    16 1   
     8     5    17 1   
     9     5    26 1   
    10     6     7 2   
    11     6    25 1   
    12     7     8 1   
    13     8     9 1   
    14     8    18 1   
    15     8    19 1   
    16     9    10 ar  
    17     9    15 ar  
    18    10    11 ar  
    19    10    20 1   
    20    11    12 ar  
    21    11    21 1   
    22    12    13 1   
    23    12    14 ar  
    24    13    22 1   
    25    14    15 ar  
    26    14    23 1   
    27    15    24 1   
@<TRIPOS>SUBSTRUCTURE
     1 2PK         1 TEMP              0 ****  ****    0 ROOT
