@<TRIPOS>MOLECULE
molecule
   26    27     1     0     0
SMALL
bcc


@<TRIPOS>ATOM
      1 OAB          0.0000     0.0000     0.0000 o          1 2PK      -0.339100
      2 CAN          1.2210     0.0000     0.0000 c          1 2PK       0.678700
      3 NAI          1.9190     0.0000     1.1290 ne         1 2PK      -0.584100
      4 CAM          3.2200    -0.0010     0.9790 cf         1 2PK       0.522500
      5 NAA          4.1690    -0.0030     1.9500 nz         1 2PK      -0.710600
      6 SAJ          3.4640    -0.0010    -0.7770 sx         1 2PK       0.048400
      7 CAO          1.9540    -0.0050    -1.1900 ce         1 2PK      -0.400400
      8 CAD          1.4020    -0.0120    -2.5910 c3         1 2PK       0.009100
      9 CAL          1.1010    -1.4290    -3.0070 ca         1 2PK      -0.136300
     10 CAG         -0.1480    -1.9700    -2.7600 ca         1 2PK      -0.102000
     11 CAE         -0.4260    -3.2700    -3.1380 ca         1 2PK      -0.145500
     12 CAK          0.5480    -4.0300    -3.7680 ca         1 2PK       0.138100
     13 OAC          0.2770    -5.3080    -4.1420 oh         1 2PK      -0.509100
     14 CAF          1.7990    -3.4850    -4.0160 ca         1 2PK      -0.145500
     15 CAH          2.0710    -2.1830    -3.6390 ca         1 2PK      -0.102000
     16 H1           4.7280    -0.8290     1.8690 hn         1 2PK       0.463467
     17 H2           3.7280     0.0150     2.8480 hn         1 2PK       0.463467
     18 H3           0.4920     0.5750    -2.6230 hc         1 2PK       0.090200
     19 H4           2.1310     0.4160    -3.2690 hc         1 2PK       0.090200
     20 H5          -0.9080    -1.3760    -2.2680 ha         1 2PK       0.139000
     21 H6          -1.4040    -3.6940    -2.9450 ha         1 2PK       0.158000
     22 H7           0.4990    -5.8960    -3.4390 ho         1 2PK       0.430000
     23 H8           2.5610    -4.0760    -4.5100 ha         1 2PK       0.158000
     24 H9           3.0480    -1.7570    -3.8320 ha         1 2PK       0.139000
     25 H10          4.5720    -0.0030    -1.5080 hs         1 2PK       0.181000
     26 HAA3         4.7510     0.8050     1.8490 hn         1 2PK       0.463467
@<TRIPOS>BOND
     1     5     4 1
     2     3     4 2
     3     3     2 1
     4     4     6 1
     5     2     1 2
     6     2     7 1
     7     6     7 2
     8     7     8 1
     9     8     9 1
    10    15     9 ar
    11    15    14 ar
    12     9    10 ar
    13    14    12 ar
    14    10    11 ar
    15    12    11 ar
    16    12    13 1
    17     5    16 1
    18     5    17 1
    19     8    18 1
    20     8    19 1
    21    10    20 1
    22    11    21 1
    23    13    22 1
    24    14    23 1
    25    15    24 1
    26     6    25 1
    27    26     5 1
@<TRIPOS>SUBSTRUCTURE
     1 2PK         1 TEMP              0 ****  ****    0 ROOT
