@<TRIPOS>MOLECULE
molecule
   11    10     1     0     0
SMALL
bcc


@<TRIPOS>ATOM
      1 C1           0.0000     0.0000     0.0000 c          1 2PL       0.891600
      2 C2           1.5070     0.0000     0.0000 c3         1 2PL       0.061400
      3 P            3.5910     0.0030     1.2730 p5         1 2PL       1.206900
      4 O11         -0.6040     0.0000     1.0460 o          1 2PL      -0.912800
      5 O12         -0.6710    -0.0030    -1.1620 o          1 2PL      -0.912800
      6 O1P          1.9840     0.0030     1.3470 os         1 2PL      -0.543200
      7 O2P          4.0500     1.2110     0.5520 o          1 2PL      -0.947167
      8 O3P          4.1980     0.0050     2.7620 o          1 2PL      -0.947167
      9 O4P          4.0930    -1.3110     0.4900 o          1 2PL      -0.947167
     10 H21          1.8680    -0.8850    -0.5090 h1         1 2PL       0.025200
     11 H22          1.8680     0.8840    -0.5130 h1         1 2PL       0.025200
@<TRIPOS>BOND
     1     1     2 1   
     2     1     4 1   
     3     1     5 1   
     4     2     6 1   
     5     2    10 1   
     6     2    11 1   
     7     3     6 1   
     8     3     7 1   
     9     3     8 1   
    10     3     9 1   
@<TRIPOS>SUBSTRUCTURE
     1 2PL         1 TEMP              0 ****  ****    0 ROOT
