@<TRIPOS>MOLECULE
2PL
   11    10     1     0     0
SMALL
bcc


@<TRIPOS>ATOM
      1 C1         -0.0560   -0.1040    0.0240 c         1 2PL      0.894600
      2 C2          1.4620    0.1330    0.0910 c3        1 2PL      0.116400
      3 P           3.7750   -0.1230    1.2030 p5        1 2PL      1.321900
      4 O11        -0.8700    0.7490    0.5150 o         1 2PL     -0.928300
      5 O12        -0.5300   -1.0940   -0.6310 o         1 2PL     -0.928300
      6 O1P         2.0890   -0.4260    1.1920 os        1 2PL     -0.569200
      7 O2P         3.9150    1.3840    1.2350 o         1 2PL     -0.958167
      8 O3P         4.2200   -0.8150    2.4740 o         1 2PL     -0.958167
      9 O4P         4.3070   -0.7550   -0.0660 o         1 2PL     -0.958167
     10 H21         1.9280   -0.2910   -0.8460 h1        1 2PL     -0.016300
     11 H22         1.6450    1.2470    0.0950 h1        1 2PL     -0.016300
@<TRIPOS>BOND
     1    1    2 1   
     2    1    4 1   
     3    1    5 1   
     4    2    6 1   
     5    2   10 1   
     6    2   11 1   
     7    3    6 1   
     8    3    7 1   
     9    3    8 1   
    10    3    9 1   
@<TRIPOS>SUBSTRUCTURE
     1 2PL         1 TEMP              0 ****  ****    0 ROOT
