@<TRIPOS>MOLECULE
molecule
   40    41     1     0     0
SMALL
bcc


@<TRIPOS>ATOM
      1 C1           0.0000     0.0000     0.0000 ca         1 2PM      -0.131250
      2 C2           1.3820     0.0000     0.0000 ca         1 2PM      -0.125500
      3 C3           2.0730     0.0000     1.1970 ca         1 2PM      -0.131250
      4 C4           1.3810     0.0050     2.3940 ca         1 2PM      -0.108750
      5 C5          -0.0010     0.0000     2.3940 ca         1 2PM      -0.095800
      6 C6          -0.6910     0.0000     1.1970 ca         1 2PM      -0.108750
      7 C7          -0.7540     0.0000     3.6990 c3         1 2PM       0.223700
      8 C8          -0.7930    -1.3990     4.2580 ca         1 2PM      -0.095800
      9 C9          -1.8810    -2.2130     4.0090 ca         1 2PM      -0.108750
     10 C10         -1.9170    -3.4960     4.5210 ca         1 2PM      -0.131250
     11 C11         -0.8620    -3.9650     5.2820 ca         1 2PM      -0.125500
     12 C12          0.2270    -3.1520     5.5300 ca         1 2PM      -0.131250
     13 C13          0.2640    -1.8700     5.0140 ca         1 2PM      -0.108750
     14 O1          -0.0990     0.8660     4.6280 os         1 2PM      -0.381600
     15 C14         -1.1110     1.3870     5.4920 c3         1 2PM       0.129400
     16 C15         -0.4710     2.3280     6.5160 c3         1 2PM       0.132800
     17 N1           0.0890     3.4960     5.8250 n3         1 2PM      -0.656600
     18 C16         -1.0440     4.3630     5.4750 c3         1 2PM       0.121100
     19 C17          0.8900     4.2280     6.8150 c3         1 2PM       0.121100
     20 H1          -0.5420    -0.0000    -0.9380 ha         1 2PM       0.128750
     21 H2           1.9230    -0.0020    -0.9380 ha         1 2PM       0.127500
     22 H3           3.1560     0.0020     1.1970 ha         1 2PM       0.128750
     23 H4           1.9230     0.0050     3.3330 ha         1 2PM       0.134500
     24 H6          -1.7750    -0.0020     1.1970 ha         1 2PM       0.134500
     25 H7          -1.7660     0.3500     3.5320 h1         1 2PM       0.048700
     26 H9          -2.7080    -1.8450     3.4120 ha         1 2PM       0.134500
     27 H10         -2.7700    -4.1340     4.3270 ha         1 2PM       0.128750
     28 H11         -0.8900    -4.9700     5.6850 ha         1 2PM       0.127500
     29 H12          1.0540    -3.5200     6.1250 ha         1 2PM       0.128750
     30 H13          1.1180    -1.2320     5.2090 ha         1 2PM       0.134500
     31 H141        -1.6010     0.5700     6.0070 h1         1 2PM       0.030200
     32 H142        -1.8400     1.9330     4.9050 h1         1 2PM       0.030200
     33 H151        -1.2230     2.6540     7.2250 h1         1 2PM       0.044700
     34 H152         0.3190     1.8060     7.0420 h1         1 2PM       0.044700
     35 H161        -1.7890     4.3170     6.2590 h1         1 2PM       0.034033
     36 H162        -0.6970     5.3830     5.3640 h1         1 2PM       0.034033
     37 H163        -1.4800     4.0270     4.5420 h1         1 2PM       0.034033
     38 H171         1.6990     3.5970     7.1640 h1         1 2PM       0.034033
     39 H172         0.2620     4.5060     7.6530 h1         1 2PM       0.034033
     40 H173         1.3000     5.1210     6.3590 h1         1 2PM       0.034033
@<TRIPOS>BOND
     1     1     2 ar  
     2     1     6 ar  
     3     1    20 1   
     4     2     3 ar  
     5     2    21 1   
     6     3     4 ar  
     7     3    22 1   
     8     4     5 ar  
     9     4    23 1   
    10     5     6 ar  
    11     5     7 1   
    12     6    24 1   
    13     7     8 1   
    14     7    14 1   
    15     7    25 1   
    16     8     9 ar  
    17     8    13 ar  
    18     9    10 ar  
    19     9    26 1   
    20    10    11 ar  
    21    10    27 1   
    22    11    12 ar  
    23    11    28 1   
    24    12    13 ar  
    25    12    29 1   
    26    13    30 1   
    27    14    15 1   
    28    15    16 1   
    29    15    31 1   
    30    15    32 1   
    31    16    17 1   
    32    16    33 1   
    33    16    34 1   
    34    17    18 1   
    35    17    19 1   
    36    18    35 1   
    37    18    36 1   
    38    18    37 1   
    39    19    38 1   
    40    19    39 1   
    41    19    40 1   
@<TRIPOS>SUBSTRUCTURE
     1 2PM         1 TEMP              0 ****  ****    0 ROOT
