@<TRIPOS>MOLECULE
molecule
   10     9     1     0     0
SMALL
bcc


@<TRIPOS>ATOM
      1 P1           0.0000     0.0000     0.0000 p5         1 2PN       1.206800
      2 O1           1.4800     0.0000     0.0000 o          1 2PN      -0.967500
      3 O2          -0.5370     0.0000     1.5180 o          1 2PN      -0.967500
      4 O3          -0.5360     1.3150    -0.7600 o          1 2PN      -0.967500
      5 N1          -0.5610    -1.3730    -0.7950 n7         1 2PN      -0.919400
      6 P2           0.0360    -2.6990     0.0520 p5         1 2PN       1.206800
      7 O4           1.5160    -2.6590     0.0510 o          1 2PN      -0.967500
      8 O5          -0.5020    -2.6550     1.5690 o          1 2PN      -0.967500
      9 O6          -0.4630    -4.0570    -0.6560 o          1 2PN      -0.967500
     10 HN1         -1.4910    -1.3930    -1.1640 hn         1 2PN       0.310800
@<TRIPOS>BOND
     1     1     2 1
     2     1     3 1
     3     1     4 1
     4     1     5 1
     5     5     6 1
     6     5    10 1
     7     6     7 1
     8     6     8 1
     9     6     9 1
@<TRIPOS>SUBSTRUCTURE
     1 2PN         1 TEMP              0 ****  ****    0 ROOT
