@<TRIPOS>MOLECULE
molecule
    5     4     1     0     0
SMALL
bcc


@<TRIPOS>ATOM
      1 P            0.0000     0.0000     0.0000 p5         1 2PO       1.228900
      2 O1P          1.5260     0.0000     0.0000 o          1 2PO      -0.964500
      3 O2P         -0.6170     0.0000     1.3960 o          1 2PO      -0.964500
      4 O3P         -0.6160    -1.0260    -0.9470 o          1 2PO      -0.964500
      5 HP          -0.3550     1.2450    -0.5450 hp         1 2PO      -0.334400
@<TRIPOS>BOND
     1     1     2 1
     2     1     3 1
     3     1     4 1
     4     1     5 1
@<TRIPOS>SUBSTRUCTURE
     1 2PO         1 TEMP              0 ****  ****    0 ROOT
