@<TRIPOS>MOLECULE
2PO
    5     4     1     0     0
SMALL
bcc


@<TRIPOS>ATOM
      1 P           0.0060   -0.0190    0.0080 p5        1 2PO      1.261900
      2 O1P         1.5190    0.0130   -0.0050 o         1 2PO     -0.972500
      3 O2P        -0.6180    0.0090    1.3870 o         1 2PO     -0.972500
      4 O3P        -0.6170   -1.0110   -0.9500 o         1 2PO     -0.972500
      5 HP         -0.3510    1.2280   -0.5360 hp        1 2PO     -0.345400
@<TRIPOS>BOND
     1    1    2 1   
     2    1    3 1   
     3    1    4 1   
     4    1    5 1   
@<TRIPOS>SUBSTRUCTURE
     1 2PO         1 TEMP              0 ****  ****    0 ROOT
