@<TRIPOS>MOLECULE
2PP
   25    24     1     0     0
SMALL
bcc


@<TRIPOS>ATOM
      1 C1         -0.1690   -0.2310    0.0810 c         1 2PP      0.911600
      2 C2          1.3760   -0.0860    0.0420 c3        1 2PP     -0.188700
      3 C3          1.9450    0.0130    1.4440 c3        1 2PP     -0.052400
      4 C4          1.5670    1.3240    2.1020 c3        1 2PP     -0.085400
      5 C5          2.0830    1.4090    3.5150 c3        1 2PP     -0.083600
      6 C1'         1.9730   -1.2770   -0.6890 c3        1 2PP     -0.052400
      7 C2'         1.6600   -1.2230   -2.1700 c3        1 2PP     -0.085400
      8 C3'         2.0430   -2.5000   -2.8710 c3        1 2PP     -0.083600
      9 O1         -0.6870   -0.9860    0.9520 o         1 2PP     -0.848300
     10 O2         -0.8350    0.4130   -0.7800 o         1 2PP     -0.848300
     11 H2          1.6200    0.8520   -0.5260 hc        1 2PP      0.033700
     12 H31         3.0630   -0.0820    1.4180 hc        1 2PP      0.022450
     13 H32         1.5390   -0.8390    2.0530 hc        1 2PP      0.022450
     14 H41         0.4460    1.4100    2.0950 hc        1 2PP      0.050200
     15 H42         1.9720    2.1800    1.5010 hc        1 2PP      0.050200
     16 H51         3.1960    1.3270    3.5370 hc        1 2PP      0.015200
     17 H52         1.7930    2.3820    3.9800 hc        1 2PP      0.015200
     18 H53         1.6600    0.5830    4.1360 hc        1 2PP      0.015200
     19 H1'1        1.5520   -2.2180   -0.2470 hc        1 2PP      0.022450
     20 H1'2        3.0860   -1.3040   -0.5440 hc        1 2PP      0.022450
     21 H2'1        2.2050   -0.3600   -2.6360 hc        1 2PP      0.050200
     22 H2'2        0.5590   -1.0220   -2.2940 hc        1 2PP      0.050200
     23 H3'1        1.8220   -2.4290   -3.9630 hc        1 2PP      0.015200
     24 H3'2        3.1330   -2.7110   -2.7460 hc        1 2PP      0.015200
     25 H3'3        1.4700   -3.3630   -2.4530 hc        1 2PP      0.015200
@<TRIPOS>BOND
     1    1    2 1   
     2    1    9 1   
     3    1   10 1   
     4    2    3 1   
     5    2    6 1   
     6    2   11 1   
     7    3    4 1   
     8    3   12 1   
     9    3   13 1   
    10    4    5 1   
    11    4   14 1   
    12    4   15 1   
    13    5   16 1   
    14    5   17 1   
    15    5   18 1   
    16    6    7 1   
    17    6   19 1   
    18    6   20 1   
    19    7    8 1   
    20    7   21 1   
    21    7   22 1   
    22    8   23 1   
    23    8   24 1   
    24    8   25 1   
@<TRIPOS>SUBSTRUCTURE
     1 2PP         1 TEMP              0 ****  ****    0 ROOT
