@<TRIPOS>MOLECULE
molecule
   25    24     1     0     0
SMALL
bcc


@<TRIPOS>ATOM
      1 C1           0.0000     0.0000     0.0000 c          1 2PP       0.899600
      2 C2           1.5050     0.0000     0.0000 c3         1 2PP      -0.174700
      3 C3           2.0150     0.0000     1.4430 c3         1 2PP      -0.049900
      4 C4           1.5040     1.2470     2.1650 c3         1 2PP      -0.096900
      5 C5           2.0140     1.2470     3.6070 c3         1 2PP      -0.091100
      6 C1'          2.0170    -1.2480    -0.7220 c3         1 2PP      -0.049900
      7 C2'          1.5070    -1.2470    -2.1640 c3         1 2PP      -0.096900
      8 C3'          2.0170    -2.4960    -2.8860 c3         1 2PP      -0.091100
      9 O1          -0.6050    -0.0010     1.0450 o          1 2PP      -0.851300
     10 O2          -0.6710     0.0000    -1.1620 o          1 2PP      -0.851300
     11 H2           1.8660     0.8850    -0.5100 hc         1 2PP       0.039700
     12 H31          3.0980     0.0010     1.4430 hc         1 2PP       0.015950
     13 H32          1.6550    -0.8850     1.9530 hc         1 2PP       0.015950
     14 H41          1.8640     2.1330     1.6550 hc         1 2PP       0.069200
     15 H42          0.4210     1.2470     2.1650 hc         1 2PP       0.069200
     16 H51          3.0970     1.2560     3.6070 hc         1 2PP       0.012700
     17 H52          1.6460     2.1280     4.1200 hc         1 2PP       0.012700
     18 H53          1.6600     0.3590     4.1150 hc         1 2PP       0.012700
     19 H1'1         1.6570    -2.1330    -0.2120 hc         1 2PP       0.015950
     20 H1'2         3.1000    -1.2460    -0.7220 hc         1 2PP       0.015950
     21 H2'1         0.4240    -1.2480    -2.1640 hc         1 2PP       0.069200
     22 H2'2         1.8680    -0.3620    -2.6740 hc         1 2PP       0.069200
     23 H3'1         1.6540    -2.4960    -3.9070 hc         1 2PP       0.012700
     24 H3'2         3.1010    -2.4950    -2.8880 hc         1 2PP       0.012700
     25 H3'3         1.6580    -3.3810    -2.3750 hc         1 2PP       0.012700
@<TRIPOS>BOND
     1     1     2 1   
     2     1     9 1   
     3     1    10 1   
     4     2     3 1   
     5     2     6 1   
     6     2    11 1   
     7     3     4 1   
     8     3    12 1   
     9     3    13 1   
    10     4     5 1   
    11     4    14 1   
    12     4    15 1   
    13     5    16 1   
    14     5    17 1   
    15     5    18 1   
    16     6     7 1   
    17     6    19 1   
    18     6    20 1   
    19     7     8 1   
    20     7    21 1   
    21     7    22 1   
    22     8    23 1   
    23     8    24 1   
    24     8    25 1   
@<TRIPOS>SUBSTRUCTURE
     1 2PP         1 TEMP              0 ****  ****    0 ROOT
