@<TRIPOS>MOLECULE
molecule
   84    88     1     0     0
SMALL
bcc


@<TRIPOS>ATOM
      1 CAB          0.0000     0.0000     0.0000 ca         1 2PQ      -0.116000
      2 CAC          1.3800     0.0000     0.0000 ca         1 2PQ      -0.128000
      3 CAD          2.0750     0.0000     1.1960 ca         1 2PQ      -0.126000
      4 CAE          1.3920    -0.0000     2.3990 ca         1 2PQ      -0.128000
      5 CAF          0.0110    -0.0000     2.4110 ca         1 2PQ      -0.116000
      6 CAA         -0.6950     0.0060     1.2090 cp         1 2PQ      -0.039000
      7 CAJ         -2.1770     0.0060     1.2160 cp         1 2PQ      -0.012000
      8 CAK         -2.8670     0.0120     2.4280 ca         1 2PQ      -0.137500
      9 CAL         -4.2440     0.0120     2.4360 ca         1 2PQ      -0.083000
     10 CAI         -2.8790     0.0060     0.0100 ca         1 2PQ      -0.137500
     11 CAH         -4.2560     0.0070     0.0150 ca         1 2PQ      -0.083000
     12 CAG         -4.9500     0.0070     1.2290 ca         1 2PQ      -0.167600
     13 CBP         -6.4260     0.0060     1.2360 c          1 2PQ       0.597300
     14 OBQ         -7.0290     0.3510     2.2340 o          1 2PQ      -0.540100
     15 CAP         -7.1690    -0.4120     0.0320 ca         1 2PQ      -0.218600
     16 CAO         -6.5790    -1.2850    -0.8880 ca         1 2PQ      -0.066000
     17 CAN         -7.2770    -1.6720    -2.0100 ca         1 2PQ      -0.127300
     18 CBM         -6.6420    -2.6120    -3.0020 c3         1 2PQ      -0.027100
     19 CBN         -5.9960    -1.8050    -4.1290 c3         1 2PQ      -0.078400
     20 CBO         -5.3520    -2.7600    -5.1350 c3         1 2PQ      -0.092100
     21 CAQ         -8.4660     0.0590    -0.1890 ca         1 2PQ      -0.036000
     22 CAR         -9.1570    -0.3340    -1.3130 ca         1 2PQ      -0.236000
     23 CAM         -8.5650    -1.1980    -2.2290 ca         1 2PQ       0.180100
     24 OBL         -9.2480    -1.5820    -3.3370 os         1 2PQ      -0.317900
     25 CBK        -10.5670    -1.0560    -3.4990 c3         1 2PQ       0.135400
     26 CBJ        -11.1750    -1.5980    -4.7950 c3         1 2PQ      -0.129400
     27 CBI        -12.5870    -1.0360    -4.9700 c3         1 2PQ       0.170800
     28 NAX        -13.2110    -1.6380    -6.1550 nh         1 2PQ      -0.586000
     29 CAY        -13.4600    -3.0660    -5.9490 c3         1 2PQ       0.162800
     30 CAZ        -14.0840    -3.6440    -7.2260 c3         1 2PQ      -0.086400
     31 CBA        -13.0190    -3.6190    -8.3250 c3         1 2PQ      -0.014100
     32 CAV        -12.3470    -2.2690    -8.3490 ca         1 2PQ      -0.170300
     33 CAW        -12.4630    -1.3720    -7.3020 ca         1 2PQ       0.118600
     34 CBH        -11.8120    -0.1400    -7.3800 ca         1 2PQ      -0.233000
     35 CAT        -11.0640     0.1890    -8.4900 ca         1 2PQ      -0.088000
     36 CAS        -10.9530    -0.7050    -9.5380 ca         1 2PQ      -0.180000
     37 CAU        -11.5930    -1.9320    -9.4670 ca         1 2PQ       0.212100
     38 OBE        -11.4830    -2.8110   -10.4980 os         1 2PQ      -0.324900
     39 CBD        -10.5900    -2.4620   -11.5570 c3         1 2PQ       0.033800
     40 CBF         -9.1790    -2.2760   -10.9940 c3         1 2PQ      -0.078100
     41 CBG        -10.5770    -3.5780   -12.6040 c3         1 2PQ      -0.078100
     42 CBB        -11.0480    -1.1770   -12.1970 c          1 2PQ       0.868600
     43 OBR        -12.0380    -0.6180   -11.7890 o          1 2PQ      -0.825800
     44 OBC        -10.3560    -0.6540   -13.2210 o          1 2PQ      -0.825800
     45 HAB         -0.5420     0.0610    -0.9360 ha         1 2PQ       0.134500
     46 HAC          1.9200    -0.0000    -0.9390 ha         1 2PQ       0.129500
     47 HAD          3.1580     0.0000     1.1910 ha         1 2PQ       0.128000
     48 HAE          1.9410    -0.0020     3.3320 ha         1 2PQ       0.129500
     49 HAF         -0.5220    -0.0690     3.3520 ha         1 2PQ       0.134500
     50 HAK         -2.3200     0.0160     3.3630 ha         1 2PQ       0.136000
     51 HAL         -4.7800     0.0140     3.3780 ha         1 2PQ       0.151500
     52 HAI         -2.3410     0.0060    -0.9300 ha         1 2PQ       0.136000
     53 HAH         -4.8010     0.0050    -0.9210 ha         1 2PQ       0.151500
     54 HAO         -5.6100    -1.7200    -0.6760 ha         1 2PQ       0.144000
     55 HBM         -7.4010    -3.2660    -3.4150 hc         1 2PQ       0.052200
     56 HBMA        -5.8860    -3.2070    -2.5030 hc         1 2PQ       0.052200
     57 HBN         -6.7520    -1.2110    -4.6280 hc         1 2PQ       0.045200
     58 HBNA        -5.2380    -1.1510    -3.7160 hc         1 2PQ       0.045200
     59 HBO         -4.5490    -3.3050    -4.6540 hc         1 2PQ       0.034033
     60 HBOA        -6.0960    -3.4590    -5.4980 hc         1 2PQ       0.034033
     61 HBOB        -4.9540    -2.1920    -5.9680 hc         1 2PQ       0.034033
     62 HAQ         -8.9280     0.7320     0.5240 ha         1 2PQ       0.146000
     63 HAR        -10.1610     0.0320    -1.4870 ha         1 2PQ       0.143000
     64 HBK        -10.5220     0.0250    -3.5460 h1         1 2PQ       0.033700
     65 HBKA       -11.1820    -1.3560    -2.6590 h1         1 2PQ       0.033700
     66 HBJ        -11.2200    -2.6790    -4.7480 hc         1 2PQ       0.073200
     67 HBJA       -10.5600    -1.2980    -5.6350 hc         1 2PQ       0.073200
     68 HBI        -13.1790    -1.2690    -4.0930 h1         1 2PQ       0.052200
     69 HBIA       -12.5350     0.0390    -5.0950 h1         1 2PQ       0.052200
     70 HAY        -14.1440    -3.1980    -5.1190 h1         1 2PQ       0.029200
     71 HAYA       -12.5250    -3.5710    -5.7410 h1         1 2PQ       0.029200
     72 HAZ        -14.9180    -3.0210    -7.5270 hc         1 2PQ       0.047700
     73 HAZA       -14.3790    -4.6700    -7.0430 hc         1 2PQ       0.047700
     74 HBA        -12.2740    -4.3740    -8.1050 hc         1 2PQ       0.052700
     75 HBAA       -13.5000    -3.7850    -9.2810 hc         1 2PQ       0.052700
     76 HBH        -11.8960     0.5650    -6.5610 ha         1 2PQ       0.111000
     77 HAT        -10.5650     1.1490    -8.5420 ha         1 2PQ       0.118000
     78 HAS        -10.3660    -0.4480   -10.4110 ha         1 2PQ       0.182000
     79 HBF         -8.8990    -1.2320   -11.0560 hc         1 2PQ       0.034200
     80 HBFA        -9.1590    -2.5940    -9.9580 hc         1 2PQ       0.034200
     81 HBFB        -8.4800    -2.8720   -11.5680 hc         1 2PQ       0.034200
     82 HBG         -9.8520    -3.3430   -13.3730 hc         1 2PQ       0.034200
     83 HBGA       -11.5610    -3.6650   -13.0500 hc         1 2PQ       0.034200
     84 HBGB       -10.3110    -4.5150   -12.1300 hc         1 2PQ       0.034200
@<TRIPOS>BOND
     1     6     1 ar  
     2     1     2 ar  
     3     1    45 1   
     4     2     3 ar  
     5     2    46 1   
     6     4     3 ar  
     7     3    47 1   
     8     5     4 ar  
     9     4    48 1   
    10     6     5 ar  
    11     5    49 1   
    12     7     6 1   
    13     8     7 ar  
    14    10     7 ar  
    15     9     8 ar  
    16     8    50 1   
    17    12     9 ar  
    18     9    51 1   
    19    11    10 ar  
    20    10    52 1   
    21    12    11 ar  
    22    11    53 1   
    23    13    12 1   
    24    15    13 1   
    25    14    13 2   
    26    16    15 ar  
    27    15    21 ar  
    28    17    16 ar  
    29    16    54 1   
    30    18    17 1   
    31    17    23 ar  
    32    19    18 1   
    33    18    55 1   
    34    18    56 1   
    35    20    19 1   
    36    19    57 1   
    37    19    58 1   
    38    20    59 1   
    39    20    60 1   
    40    20    61 1   
    41    22    21 ar  
    42    21    62 1   
    43    23    22 ar  
    44    22    63 1   
    45    24    23 1   
    46    24    25 1   
    47    26    25 1   
    48    25    64 1   
    49    25    65 1   
    50    27    26 1   
    51    26    66 1   
    52    26    67 1   
    53    28    27 1   
    54    27    68 1   
    55    27    69 1   
    56    33    28 1   
    57    28    29 1   
    58    29    30 1   
    59    29    70 1   
    60    29    71 1   
    61    31    30 1   
    62    30    72 1   
    63    30    73 1   
    64    32    31 1   
    65    31    74 1   
    66    31    75 1   
    67    37    32 ar  
    68    32    33 ar  
    69    34    33 ar  
    70    35    34 ar  
    71    34    76 1   
    72    36    35 ar  
    73    35    77 1   
    74    36    37 ar  
    75    36    78 1   
    76    37    38 1   
    77    39    38 1   
    78    42    39 1   
    79    39    40 1   
    80    39    41 1   
    81    40    79 1   
    82    40    80 1   
    83    40    81 1   
    84    41    82 1   
    85    41    83 1   
    86    41    84 1   
    87    43    42 1   
    88    44    42 1   
@<TRIPOS>SUBSTRUCTURE
     1 2PQ         1 TEMP              0 ****  ****    0 ROOT
