@<TRIPOS>MOLECULE
molecule
   49    53     1     0     0
SMALL
bcc


@<TRIPOS>ATOM
      1 C1           0.0000     0.0000     0.0000 ca         1 2PU      -0.131300
      2 C2           1.5020     0.0000     0.0000 c3         1 2PU       0.109000
      3 C3          -0.3870     0.2850     1.3130 ca         1 2PU      -0.134600
      4 C4          -0.9570    -0.1970    -0.9770 ca         1 2PU       0.090600
      5 N5           1.8930     0.0000     1.4320 n          1 2PU      -0.502800
      6 C6           2.0670    -1.3400    -0.5130 c3         1 2PU      -0.085400
      7 C7           0.8380     0.4430     2.1260 c          1 2PU       0.752100
      8 C8          -1.7440     0.3750     1.6240 ca         1 2PU      -0.078000
      9 C9          -2.3070    -0.1140    -0.6530 ca         1 2PU      -0.114000
     10 N10         -0.5680    -0.4860    -2.2900 ns         1 2PU      -0.485100
     11 C11          3.2670    -0.5150     1.4600 c3         1 2PU       0.147000
     12 C12          3.4220    -1.4390     0.2320 c3         1 2PU      -0.103400
     13 O13          0.8810     0.9040     3.2500 o          1 2PU      -0.614500
     14 C14         -2.6920     0.1740     0.6430 ca         1 2PU      -0.121000
     15 C15         -1.4040    -1.1550    -3.1080 c          1 2PU       0.792100
     16 N16         -1.0860    -1.3210    -4.4060 ns         1 2PU      -0.539400
     17 O17         -2.4480    -1.6030    -2.6760 o          1 2PU      -0.633100
     18 C18         -1.9590    -2.0110    -5.2600 cc         1 2PU       0.475200
     19 C19         -3.1910    -2.5780    -4.8960 cc         1 2PU      -0.341300
     20 N20         -1.7700    -2.2340    -6.5390 nd         1 2PU      -0.559800
     21 C21         -3.7260    -3.1500    -5.9990 cd         1 2PU      -0.050600
     22 N22         -2.8680    -2.9560    -7.0220 na         1 2PU      -0.020600
     23 C23         -5.0420    -3.8760    -6.0710 c3         1 2PU       0.209800
     24 C24         -4.8340    -5.3240    -6.5610 c3         1 2PU      -0.080400
     25 N25         -5.9220    -3.2550    -7.0940 n7         1 2PU      -0.796200
     26 C26         -6.0480    -5.6210    -7.4650 c3         1 2PU      -0.087400
     27 C27         -6.8900    -4.3270    -7.4430 c3         1 2PU       0.137800
     28 H2           1.9130     0.8490    -0.5330 h1         1 2PU       0.071700
     29 H61          1.4170    -2.1610    -0.2360 hc         1 2PU       0.057700
     30 H62          2.2210    -1.3060    -1.5850 hc         1 2PU       0.057700
     31 H8          -2.0530     0.6000     2.6380 ha         1 2PU       0.148000
     32 H9          -3.0570    -0.2710    -1.4190 ha         1 2PU       0.180000
     33 H10          0.3090    -0.1500    -2.6370 hn         1 2PU       0.321500
     34 H111         3.4310    -1.0810     2.3690 h1         1 2PU       0.052700
     35 H112         3.9710     0.3060     1.3950 h1         1 2PU       0.052700
     36 H121         3.6030    -2.4580     0.5490 hc         1 2PU       0.055200
     37 H122         4.2260    -1.0870    -0.4030 hc         1 2PU       0.055200
     38 H14         -3.7450     0.2380     0.8900 ha         1 2PU       0.142000
     39 H16         -0.2320    -0.9400    -4.7650 hn         1 2PU       0.327500
     40 H19         -3.6350    -2.5600    -3.9080 ha         1 2PU       0.196000
     41 H22         -2.9980    -3.2680    -7.9650 hn         1 2PU       0.339700
     42 H23         -5.5330    -3.8740    -5.1050 h1         1 2PU       0.055700
     43 H241        -4.8170    -6.0060    -5.7190 hc         1 2PU       0.053700
     44 H242        -3.9150    -5.3990    -7.1310 hc         1 2PU       0.053700
     45 H25         -6.4120    -2.4820    -6.6880 hn         1 2PU       0.356800
     46 H261        -5.7200    -5.8380    -8.4740 hc         1 2PU       0.050700
     47 H262        -6.6210    -6.4480    -7.0630 hc         1 2PU       0.050700
     48 H271        -7.3210    -4.1420    -8.4190 h1         1 2PU       0.043700
     49 H272        -7.6650    -4.3950    -6.6880 h1         1 2PU       0.043700
@<TRIPOS>BOND
     1     1     2 1
     2     1     3 ar
     3     1     4 ar
     4     2     5 1
     5     2     6 1
     6     2    28 1
     7     3     7 1
     8     3     8 ar
     9     4     9 ar
    10     4    10 1
    11     5     7 1
    12     5    11 1
    13     6    12 1
    14     6    29 1
    15     6    30 1
    16     7    13 2
    17     8    14 ar
    18     8    31 1
    19     9    14 ar
    20     9    32 1
    21    10    15 1
    22    10    33 1
    23    11    12 1
    24    11    34 1
    25    11    35 1
    26    12    36 1
    27    12    37 1
    28    14    38 1
    29    15    16 1
    30    15    17 2
    31    16    18 1
    32    16    39 1
    33    18    19 1
    34    18    20 2
    35    19    21 2
    36    19    40 1
    37    20    22 1
    38    21    22 1
    39    21    23 1
    40    22    41 1
    41    23    24 1
    42    23    25 1
    43    23    42 1
    44    24    26 1
    45    24    43 1
    46    24    44 1
    47    25    27 1
    48    25    45 1
    49    26    27 1
    50    26    46 1
    51    26    47 1
    52    27    48 1
    53    27    49 1
@<TRIPOS>SUBSTRUCTURE
     1 2PU         1 TEMP              0 ****  ****    0 ROOT
