@<TRIPOS>MOLECULE
molecule
   27    28     1     0     0
SMALL
bcc


@<TRIPOS>ATOM
      1 OAC          0.0000     0.0000     0.0000 o          1 2PV      -0.339100
      2 CAN          1.2210     0.0000     0.0000 c          1 2PV       0.679700
      3 NAI          1.9180     0.0000     1.1300 ne         1 2PV      -0.585100
      4 CAM          3.2200    -0.0010     0.9800 cf         1 2PV       0.522500
      5 NAA          4.1690    -0.0020     1.9520 nz         1 2PV      -0.709600
      6 SAJ          3.4650    -0.0010    -0.7760 sx         1 2PV       0.048400
      7 CAO          1.9550    -0.0060    -1.1890 ce         1 2PV      -0.397400
      8 CAD          1.4020    -0.0130    -2.5920 c3         1 2PV       0.010100
      9 CAL          1.1020    -1.4300    -3.0060 ca         1 2PV      -0.121300
     10 CAG         -0.1460    -1.9710    -2.7590 ca         1 2PV      -0.119000
     11 CAE         -0.4260    -3.2700    -3.1370 ca         1 2PV      -0.142500
     12 CAK          0.5500    -4.0320    -3.7680 ca         1 2PV       0.196600
     13 NAB          0.2740    -5.3480    -4.1470 nv         1 2PV      -0.993200
     14 CAF          1.8030    -3.4850    -4.0150 ca         1 2PV      -0.142500
     15 CAH          2.0720    -2.1850    -3.6380 ca         1 2PV      -0.119000
     16 H1           4.7850    -0.7780     1.8150 hn         1 2PV       0.462800
     17 H2           3.7290    -0.0780     2.8470 hn         1 2PV       0.462800
     18 H3           2.1320     0.4140    -3.2690 hc         1 2PV       0.087700
     19 H4           0.4920     0.5740    -2.6240 hc         1 2PV       0.087700
     20 H5          -0.9120    -1.3690    -2.2860 ha         1 2PV       0.141500
     21 H6          -1.4230    -3.6720    -3.0010 ha         1 2PV       0.152500
     22 H7          -0.1010    -5.5390    -5.0560 hn         1 2PV       0.439800
     23 H8           0.4490    -6.1000    -3.5100 hn         1 2PV       0.439800
     24 H9           2.5490    -4.0600    -4.5500 ha         1 2PV       0.152500
     25 H10          3.0280    -1.8970    -4.0590 ha         1 2PV       0.141500
     26 H11          4.5730    -0.0030    -1.5070 hs         1 2PV       0.180000
     27 HAA3         4.6910     0.8510     1.9080 hn         1 2PV       0.462800
@<TRIPOS>BOND
     1    13    12 1
     2    12    14 ar
     3    12    11 ar
     4    14    15 ar
     5    11    10 ar
     6    15     9 ar
     7    10     9 ar
     8     9     8 1
     9     1     2 2
    10     8     7 1
    11     2     7 1
    12     2     3 1
    13     7     6 2
    14     3     4 2
    15     6     4 1
    16     4     5 1
    17     5    16 1
    18     5    17 1
    19     8    18 1
    20     8    19 1
    21    10    20 1
    22    11    21 1
    23    13    22 1
    24    13    23 1
    25    14    24 1
    26    15    25 1
    27     6    26 1
    28    27     5 1
@<TRIPOS>SUBSTRUCTURE
     1 2PV         1 TEMP              0 ****  ****    0 ROOT
