@<TRIPOS>MOLECULE
2PV
   27    28     1     0     0
SMALL
bcc


@<TRIPOS>ATOM
      1 OAC          0.0000     0.0000     0.0000 o          1 2PV      -0.399100
      2 CAN          1.2210     0.0000     0.0000 c          1 2PV       0.634700
      3 NAI          1.9180     0.0000     1.1300 ne         1 2PV      -0.395100
      4 CAM          3.2200    -0.0010     0.9800 cf         1 2PV       0.227500
      5 NAA          4.1690    -0.0020     1.9520 nz         1 2PV       0.242400
      6 SAJ          3.4650    -0.0010    -0.7760 sx         1 2PV      -0.218600
      7 CAO          1.9550    -0.0060    -1.1890 ce         1 2PV      -0.237400
      8 CAD          1.4020    -0.0130    -2.5920 c3         1 2PV       0.085100
      9 CAL          1.1020    -1.4300    -3.0060 ca         1 2PV      -0.138300
     10 CAG         -0.1460    -1.9710    -2.7590 ca         1 2PV      -0.096000
     11 CAE         -0.4260    -3.2700    -3.1370 ca         1 2PV      -0.109000
     12 CAK          0.5500    -4.0320    -3.7680 ca         1 2PV       0.064600
     13 NAB          0.2740    -5.3480    -4.1470 nv         1 2PV      -0.564200
     14 CAF          1.8030    -3.4850    -4.0150 ca         1 2PV      -0.109000
     15 CAH          2.0720    -2.1850    -3.6380 ca         1 2PV      -0.096000
     16 H1           4.7850    -0.7780     1.8150 hn         1 2PV       0.202800
     17 H2           3.7290    -0.0780     2.8470 hn         1 2PV       0.202800
     18 H3           2.1320     0.4140    -3.2690 hc         1 2PV       0.056700
     19 H4           0.4920     0.5740    -2.6240 hc         1 2PV       0.056700
     20 H5          -0.9120    -1.3690    -2.2860 ha         1 2PV       0.116000
     21 H6          -1.4230    -3.6720    -3.0010 ha         1 2PV       0.122000
     22 H7          -0.1010    -5.5390    -5.0560 hn         1 2PV       0.284800
     23 H8           0.4490    -6.1000    -3.5100 hn         1 2PV       0.284800
     24 H9           2.5490    -4.0600    -4.5500 ha         1 2PV       0.122000
     25 H10          3.0280    -1.8970    -4.0590 ha         1 2PV       0.116000
     26 H11          4.5730    -0.0030    -1.5070 hs         1 2PV       0.339000
     27 HAA3         4.6910     0.8510     1.9080 hn         1 2PV       0.202800
@<TRIPOS>BOND
     1     1     2 2   
     2     2     3 1   
     3     2     7 1   
     4     3     4 2   
     5     4     5 1   
     6     4     6 1   
     7     5    16 1   
     8     5    17 1   
     9     5    27 1   
    10     6     7 2   
    11     6    26 1   
    12     7     8 1   
    13     8     9 1   
    14     8    18 1   
    15     8    19 1   
    16     9    10 ar  
    17     9    15 ar  
    18    10    11 ar  
    19    10    20 1   
    20    11    12 ar  
    21    11    21 1   
    22    12    13 1   
    23    12    14 ar  
    24    13    22 1   
    25    13    23 1   
    26    14    15 ar  
    27    14    24 1   
    28    15    25 1   
@<TRIPOS>SUBSTRUCTURE
     1 2PV         1 TEMP              0 ****  ****    0 ROOT
