@<TRIPOS>MOLECULE
2PW
   36    37     1     0     0
SMALL
bcc


@<TRIPOS>ATOM
      1 CAA          0.0000     0.0000     0.0000 c3         1 2PW      -0.005100
      2 CAK          1.5290     0.0000     0.0000 c3         1 2PW      -0.071400
      3 CAR          2.0400     0.0000     1.4420 c3         1 2PW      -0.059300
      4 CAB          3.5640    -0.1260     1.4440 c3         1 2PW      -0.022100
      5 NAS          1.6530     1.2520     2.0970 n          1 2PW       0.200000
      6 CAO          0.8870     1.2340     3.1840 c          1 2PW       0.637700
      7 OAC          0.4620     0.2100     3.7020 o          1 2PW      -0.638500
      8 CAP          2.0670     2.4180     1.6160 c2         1 2PW      -0.157800
      9 SAE          3.0590     2.6360     0.2380 sh         1 2PW      -0.309400
     10 SAL          1.4960     3.5590     2.5200 sx         1 2PW      -0.512700
     11 CAQ          0.6220     2.5230     3.6680 ce         1 2PW       0.003500
     12 CAF         -0.1310     2.8960     4.7680 cf         1 2PW       0.124800
     13 CAN         -0.9200     1.8960     5.4860 ca         1 2PW      -0.134800
     14 CAI         -0.9960     1.9300     6.8890 ca         1 2PW      -0.031000
     15 CAG         -1.7400     0.9860     7.5570 ca         1 2PW      -0.151500
     16 CAM         -2.4140    -0.0020     6.8490 ca         1 2PW       0.143100
     17 OAD         -3.1480    -0.9320     7.5170 oh         1 2PW      -0.503100
     18 CAH         -2.3450    -0.0440     5.4610 ca         1 2PW      -0.151500
     19 CAJ         -1.6090     0.8980     4.7770 ca         1 2PW      -0.031000
     20 H1          -0.3610    -0.6800     0.7620 hc         1 2PW       0.008367
     21 H2          -0.3610     1.0000     0.2070 hc         1 2PW       0.008367
     22 H3          -0.3610    -0.3200    -0.9700 hc         1 2PW       0.008367
     23 H4           1.8900    -0.8850    -0.5110 hc         1 2PW       0.045700
     24 H5           1.8900     0.8840    -0.5110 hc         1 2PW       0.045700
     25 H6           1.6090    -0.8370     1.9780 h1         1 2PW       0.078700
     26 H7           3.8500    -1.0440     1.9420 hc         1 2PW       0.022367
     27 H8           3.9960     0.7190     1.9670 hc         1 2PW       0.022367
     28 H9           3.9260    -0.1410     0.4230 hc         1 2PW       0.022367
     29 H10         -0.2420     3.9450     5.0140 ha         1 2PW       0.102000
     30 H11         -0.4710     2.6990     7.4420 ha         1 2PW       0.111000
     31 H12         -1.7990     1.0110     8.6380 ha         1 2PW       0.114500
     32 H13         -4.0260    -0.6120     7.6400 ho         1 2PW       0.402000
     33 H14         -2.8750    -0.8160     4.9160 ha         1 2PW       0.114500
     34 H15         -1.5560     0.8640     3.6960 ha         1 2PW       0.111000
     35 H16          3.4090     3.9130     0.1430 hs         1 2PW       0.209800
     36 H17          1.6240     4.8780     2.4530 hs         1 2PW       0.242000
@<TRIPOS>BOND
     1     1     2 1   
     2     1    20 1   
     3     1    21 1   
     4     1    22 1   
     5     2     3 1   
     6     2    23 1   
     7     2    24 1   
     8     3     4 1   
     9     3     5 1   
    10     3    25 1   
    11     4    26 1   
    12     4    27 1   
    13     4    28 1   
    14     5     6 1   
    15     5     8 1   
    16     6     7 2   
    17     6    11 1   
    18     8     9 1   
    19     8    10 2   
    20     9    35 1   
    21    10    11 1   
    22    10    36 1   
    23    11    12 2   
    24    12    13 1   
    25    12    29 1   
    26    13    14 ar  
    27    13    19 ar  
    28    14    15 ar  
    29    14    30 1   
    30    15    16 ar  
    31    15    31 1   
    32    16    17 1   
    33    16    18 ar  
    34    17    32 1   
    35    18    19 ar  
    36    18    33 1   
    37    19    34 1   
@<TRIPOS>SUBSTRUCTURE
     1 2PW         1 TEMP              0 ****  ****    0 ROOT
