@<TRIPOS>MOLECULE
molecule
   36    37     1     0     0
SMALL
bcc


@<TRIPOS>ATOM
      1 CAA          0.0000     0.0000     0.0000 c3         1 2PW      -0.095100
      2 CAK          1.5290     0.0000     0.0000 c3         1 2PW      -0.102400
      3 CAR          2.0400     0.0000     1.4420 c3         1 2PW       0.068700
      4 CAB          3.5640    -0.1260     1.4440 c3         1 2PW      -0.109100
      5 NAS          1.6530     1.2520     2.0970 n          1 2PW      -0.275000
      6 CAO          0.8870     1.2340     3.1840 c          1 2PW       0.728700
      7 OAC          0.4620     0.2100     3.7020 o          1 2PW      -0.610500
      8 CAP          2.0670     2.4180     1.6160 c2         1 2PW      -0.180800
      9 SAE          3.0590     2.6360     0.2380 sh         1 2PW      -0.204400
     10 SAL          1.4960     3.5590     2.5200 sx         1 2PW      -0.128700
     11 CAQ          0.6220     2.5230     3.6680 ce         1 2PW      -0.069500
     12 CAF         -0.1310     2.8960     4.7680 cf         1 2PW       0.065800
     13 CAN         -0.9200     1.8960     5.4860 ca         1 2PW      -0.116800
     14 CAI         -0.9960     1.9300     6.8890 ca         1 2PW      -0.063500
     15 CAG         -1.7400     0.9860     7.5570 ca         1 2PW      -0.164500
     16 CAM         -2.4140    -0.0020     6.8490 ca         1 2PW       0.122100
     17 OAD         -3.1480    -0.9320     7.5170 oh         1 2PW      -0.524100
     18 CAH         -2.3450    -0.0440     5.4610 ca         1 2PW      -0.164500
     19 CAJ         -1.6090     0.8980     4.7770 ca         1 2PW      -0.063500
     20 H1          -0.3610    -0.3200    -0.9700 hc         1 2PW       0.039367
     21 H2          -0.3610    -0.6800     0.7620 hc         1 2PW       0.039367
     22 H3          -0.3610     1.0000     0.2070 hc         1 2PW       0.039367
     23 H4           1.8900    -0.8850    -0.5110 hc         1 2PW       0.058700
     24 H5           1.8900     0.8840    -0.5110 hc         1 2PW       0.058700
     25 H6           1.6090    -0.8370     1.9780 h1         1 2PW       0.100700
     26 H7           3.8500    -1.0440     1.9420 hc         1 2PW       0.049700
     27 H8           3.9260    -0.1410     0.4230 hc         1 2PW       0.049700
     28 H9           3.9960     0.7190     1.9680 hc         1 2PW       0.049700
     29 H10         -0.2420     3.9450     5.0140 ha         1 2PW       0.140000
     30 H11         -0.4710     2.6990     7.4420 ha         1 2PW       0.139000
     31 H12         -1.7990     1.0110     8.6380 ha         1 2PW       0.140500
     32 H13         -4.0260    -0.6120     7.6390 ho         1 2PW       0.418000
     33 H14         -2.8750    -0.8160     4.9160 ha         1 2PW       0.140500
     34 H15         -1.5560     0.8640     3.6960 ha         1 2PW       0.139000
     35 H16          3.4080     3.9130     0.1430 hs         1 2PW       0.199800
     36 H17          1.6240     4.8780     2.4530 hs         1 2PW       0.084000
@<TRIPOS>BOND
     1    17    16 1
     2    18    16 ar
     3    18    19 ar
     4    16    15 ar
     5     1     2 1
     6    19    13 ar
     7    15    14 ar
     8     7     6 2
     9     2     3 1
    10    14    13 ar
    11    13    12 1
    12     6    11 1
    13     6     5 1
    14     4     3 1
    15    12    11 2
    16     3     5 1
    17    11    10 1
    18     5     8 1
    19     8    10 2
    20     8     9 1
    21     1    20 1
    22     1    21 1
    23     1    22 1
    24     2    23 1
    25     2    24 1
    26     3    25 1
    27     4    26 1
    28     4    27 1
    29     4    28 1
    30    12    29 1
    31    14    30 1
    32    15    31 1
    33    17    32 1
    34    18    33 1
    35    19    34 1
    36     9    35 1
    37    10    36 1
@<TRIPOS>SUBSTRUCTURE
     1 2PW         1 TEMP              0 ****  ****    0 ROOT
