@<TRIPOS>MOLECULE
molecule
   64    68     1     0     0
SMALL
bcc


@<TRIPOS>ATOM
      1 O01          0.0000     0.0000     0.0000 o          1 2PX      -0.602100
      2 C02          1.2130     0.0000     0.0000 c          1 2PX       0.632100
      3 C03          1.9670     0.0000     1.3050 c3         1 2PX       0.025500
      4 C04          2.4380    -1.4210     1.6210 c3         1 2PX      -0.005200
      5 C05          3.2950    -1.4010     2.8610 cc         1 2PX      -0.254400
      6 C06          4.6350    -1.3270     2.9050 cd         1 2PX      -0.041100
      7 N07          5.0600    -1.3330     4.2050 na         1 2PX      -0.160400
      8 C08          3.9770    -1.4120     5.0520 ca         1 2PX      -0.030200
      9 C09          2.8240    -1.4520     4.2470 ca         1 2PX      -0.127800
     10 C10          1.5620    -1.5280     4.8410 ca         1 2PX      -0.138000
     11 C11          1.4540    -1.5590     6.2020 ca         1 2PX      -0.117000
     12 C12          2.5890    -1.5160     7.0010 ca         1 2PX      -0.096000
     13 C13          3.8440    -1.4490     6.4360 ca         1 2PX      -0.114000
     14 N14          1.0840     0.4730     2.3800 nz         1 2PX      -0.790600
     15 N15          1.8880    -0.0050    -1.1670 ns         1 2PX      -0.538900
     16 C16          1.1550    -0.0110    -2.4360 c3         1 2PX       0.106700
     17 C17          0.7970    -1.4520    -2.8140 c3         1 2PX      -0.091400
     18 C18          2.0840    -2.2550    -3.0160 c3         1 2PX       0.157800
     19 C19          2.0320     0.5950    -3.5350 c3         1 2PX      -0.091400
     20 C20          3.2820    -0.2690    -3.7170 c3         1 2PX       0.157800
     21 N21          2.8880    -1.6360    -4.0780 n3         1 2PX      -0.721600
     22 C22          4.0640    -2.4570    -4.3950 c3         1 2PX       0.247000
     23 C23          4.7250    -1.9280    -5.6410 cd         1 2PX      -0.175400
     24 C24          4.5930    -2.4190    -6.8840 cc         1 2PX      -0.063100
     25 N25          5.3430    -1.6800    -7.7580 na         1 2PX      -0.175400
     26 C26          5.9900    -0.6700    -7.0820 ca         1 2PX      -0.039200
     27 C27          5.6270    -0.7780    -5.7280 ca         1 2PX      -0.098800
     28 C28          6.1360     0.1290    -4.7960 ca         1 2PX      -0.105000
     29 C29          6.9810     1.1200    -5.2050 ca         1 2PX      -0.104300
     30 C30          7.5300     2.0980    -4.1980 c3         1 2PX      -0.042800
     31 C31          7.3420     1.2330    -6.5410 ca         1 2PX      -0.106000
     32 C32          6.8570     0.3440    -7.4760 ca         1 2PX      -0.127000
     33 H1           2.8250     0.6570     1.2270 hx         1 2PX       0.114700
     34 H2           1.5780    -2.0580     1.7860 hc         1 2PX       0.090200
     35 H3           3.0160    -1.8030     0.7880 hc         1 2PX       0.090200
     36 H4           5.2840    -1.2740     2.0390 h4         1 2PX       0.177000
     37 H5           6.0160    -1.2860     4.4980 hn         1 2PX       0.318700
     38 H6           0.6720    -1.5620     4.2240 ha         1 2PX       0.104000
     39 H7           0.4750    -1.6120     6.6620 ha         1 2PX       0.147000
     40 H8           2.4860    -1.5410     8.0790 ha         1 2PX       0.155000
     41 H9           4.7230    -1.4160     7.0680 ha         1 2PX       0.148000
     42 H10          0.4490    -0.2570     2.6360 hn         1 2PX       0.463133
     43 H11          0.5660     1.2680     2.0610 hn         1 2PX       0.463133
     44 H13          2.8870     0.0480    -1.1670 hn         1 2PX       0.326500
     45 H14          0.2470     0.5720    -2.3380 h1         1 2PX       0.085700
     46 H15          0.2240    -1.4510    -3.7330 hc         1 2PX       0.069450
     47 H16          0.2140    -1.8990    -2.0180 hc         1 2PX       0.069450
     48 H17          1.8330    -3.2700    -3.3000 h1         1 2PX       0.036700
     49 H18          2.6520    -2.2630    -2.0930 h1         1 2PX       0.036700
     50 H19          2.3250     1.5980    -3.2500 hc         1 2PX       0.069450
     51 H20          1.4760     0.6240    -4.4640 hc         1 2PX       0.069450
     52 H21          3.8950     0.1490    -4.5070 h1         1 2PX       0.036700
     53 H22          3.8430    -0.2890    -2.7900 h1         1 2PX       0.036700
     54 H24          3.7550    -3.4830    -4.5570 h1         1 2PX       0.038200
     55 H25          4.7640    -2.4180    -3.5700 h1         1 2PX       0.038200
     56 H26          3.9840    -3.2730    -7.1540 h4         1 2PX       0.172000
     57 H27          5.4110    -1.8480    -8.7420 hn         1 2PX       0.303700
     58 H28          5.9380    -0.0130    -3.7400 ha         1 2PX       0.116000
     59 H29          8.4450     2.5350    -4.5810 hc         1 2PX       0.040033
     60 H30          6.8030     2.8800    -4.0210 hc         1 2PX       0.040033
     61 H31          7.7390     1.5810    -3.2690 hc         1 2PX       0.040033
     62 H32          8.0130     2.0250    -6.8510 ha         1 2PX       0.138000
     63 H33          7.1440     0.4410    -8.5160 ha         1 2PX       0.134000
     64 H143         1.6350     0.7360     3.1730 hn         1 2PX       0.463133
@<TRIPOS>BOND
     1    17    18 1
     2    17    16 1
     3     1     2 2
     4    11    10 ar
     5    11    12 ar
     6    18    21 1
     7    10     9 ar
     8    16    15 1
     9    16    19 1
    10     2    15 1
    11     2     3 1
    12    12    13 ar
    13    21    22 1
    14    21    20 1
    15    22    23 1
    16     4     3 1
    17     4     5 1
    18    19    20 1
    19     9     5 1
    20     9     8 ar
    21    14     3 1
    22    24    23 2
    23    24    25 1
    24     5     6 2
    25    23    27 1
    26    13     8 ar
    27     8     7 1
    28    25    26 1
    29     6     7 1
    30    27    26 ar
    31    27    28 ar
    32    26    32 ar
    33    28    29 ar
    34    32    31 ar
    35    29    31 ar
    36    29    30 1
    37     3    33 1
    38     4    34 1
    39     4    35 1
    40     6    36 1
    41     7    37 1
    42    10    38 1
    43    11    39 1
    44    12    40 1
    45    13    41 1
    46    14    42 1
    47    14    43 1
    48    15    44 1
    49    16    45 1
    50    17    46 1
    51    17    47 1
    52    18    48 1
    53    18    49 1
    54    19    50 1
    55    19    51 1
    56    20    52 1
    57    20    53 1
    58    22    54 1
    59    22    55 1
    60    24    56 1
    61    25    57 1
    62    28    58 1
    63    30    59 1
    64    30    60 1
    65    30    61 1
    66    31    62 1
    67    32    63 1
    68    64    14 1
@<TRIPOS>SUBSTRUCTURE
     1 2PX         1 TEMP              0 ****  ****    0 ROOT
