@<TRIPOS>MOLECULE
2PX
   64    68     1     0     0
SMALL
bcc


@<TRIPOS>ATOM
      1 O01          0.0000     0.0000     0.0000 o          1 2PX      -0.648100
      2 C02          1.2130     0.0000     0.0000 c          1 2PX       0.544100
      3 C03          1.9670     0.0000     1.3050 c3         1 2PX      -0.157500
      4 C04          2.4380    -1.4210     1.6210 c3         1 2PX       0.088800
      5 C05          3.2950    -1.4010     2.8610 cc         1 2PX      -0.273400
      6 C06          4.6350    -1.3270     2.9050 cd         1 2PX      -0.204100
      7 N07          5.0600    -1.3330     4.2050 na         1 2PX       0.394600
      8 C08          3.9770    -1.4120     5.0520 ca         1 2PX      -0.222200
      9 C09          2.8240    -1.4520     4.2470 ca         1 2PX      -0.117800
     10 C10          1.5620    -1.5280     4.8410 ca         1 2PX      -0.115000
     11 C11          1.4540    -1.5590     6.2020 ca         1 2PX      -0.078000
     12 C12          2.5890    -1.5160     7.0010 ca         1 2PX      -0.072000
     13 C13          3.8440    -1.4490     6.4360 ca         1 2PX      -0.065000
     14 N14          1.0840     0.4730     2.3800 nz         1 2PX       0.080400
     15 N15          1.8880    -0.0050    -1.1670 ns         1 2PX      -0.117900
     16 C16          1.1550    -0.0110    -2.4360 c3         1 2PX       0.005700
     17 C17          0.7970    -1.4520    -2.8140 c3         1 2PX      -0.035400
     18 C18          2.0840    -2.2550    -3.0160 c3         1 2PX       0.134300
     19 C19          2.0320     0.5950    -3.5350 c3         1 2PX      -0.035400
     20 C20          3.2820    -0.2690    -3.7170 c3         1 2PX       0.134300
     21 N21          2.8880    -1.6360    -4.0780 n3         1 2PX      -0.527600
     22 C22          4.0640    -2.4570    -4.3950 c3         1 2PX       0.258000
     23 C23          4.7250    -1.9280    -5.6410 cc         1 2PX      -0.179400
     24 C24          4.5930    -2.4190    -6.8840 cd         1 2PX      -0.231100
     25 N25          5.3430    -1.6800    -7.7580 na         1 2PX       0.367600
     26 C26          5.9900    -0.6700    -7.0820 ca         1 2PX      -0.229200
     27 C27          5.6270    -0.7780    -5.7280 ca         1 2PX      -0.091800
     28 C28          6.1360     0.1290    -4.7960 ca         1 2PX      -0.082000
     29 C29          6.9810     1.1200    -5.2050 ca         1 2PX      -0.108300
     30 C30          7.5300     2.0980    -4.1980 c3         1 2PX       0.069200
     31 C31          7.3420     1.2330    -6.5410 ca         1 2PX      -0.084000
     32 C32          6.8570     0.3440    -7.4760 ca         1 2PX      -0.082000
     33 H1           2.8250     0.6570     1.2270 hx         1 2PX       0.088700
     34 H2           1.5780    -2.0580     1.7860 hc         1 2PX       0.050200
     35 H3           3.0160    -1.8030     0.7880 hc         1 2PX       0.050200
     36 H4           5.2840    -1.2740     2.0390 h4         1 2PX       0.148000
     37 H5           6.0160    -1.2860     4.4980 hn         1 2PX       0.131700
     38 H6           0.6720    -1.5620     4.2240 ha         1 2PX       0.083000
     39 H7           0.4750    -1.6120     6.6620 ha         1 2PX       0.115000
     40 H8           2.4860    -1.5410     8.0790 ha         1 2PX       0.121000
     41 H9           4.7230    -1.4160     7.0680 ha         1 2PX       0.116000
     42 H10          0.4490    -0.2570     2.6360 hn         1 2PX       0.233467
     43 H11          0.5660     1.2680     2.0610 hn         1 2PX       0.233467
     44 H13          2.8870     0.0480    -1.1670 hn         1 2PX       0.186500
     45 H14          0.2470     0.5720    -2.3380 h1         1 2PX       0.062700
     46 H15          0.2240    -1.4510    -3.7330 hc         1 2PX       0.038450
     47 H16          0.2140    -1.8990    -2.0180 hc         1 2PX       0.038450
     48 H17          1.8330    -3.2700    -3.3000 h1         1 2PX       0.015950
     49 H18          2.6520    -2.2630    -2.0930 h1         1 2PX       0.015950
     50 H19          2.3250     1.5980    -3.2500 hc         1 2PX       0.038450
     51 H20          1.4760     0.6240    -4.4640 hc         1 2PX       0.038450
     52 H21          3.8950     0.1490    -4.5070 h1         1 2PX       0.015950
     53 H22          3.8430    -0.2890    -2.7900 h1         1 2PX       0.015950
     54 H24          3.7550    -3.4830    -4.5570 h1         1 2PX       0.008200
     55 H25          4.7640    -2.4180    -3.5700 h1         1 2PX       0.008200
     56 H26          3.9840    -3.2730    -7.1540 h4         1 2PX       0.145000
     57 H27          5.4110    -1.8480    -8.7420 hn         1 2PX       0.119700
     58 H28          5.9380    -0.0130    -3.7400 ha         1 2PX       0.097000
     59 H29          8.4450     2.5350    -4.5810 hc         1 2PX       0.003700
     60 H30          6.8030     2.8800    -4.0210 hc         1 2PX       0.003700
     61 H31          7.7390     1.5810    -3.2690 hc         1 2PX       0.003700
     62 H32          8.0130     2.0250    -6.8510 ha         1 2PX       0.110000
     63 H33          7.1440     0.4410    -8.5160 ha         1 2PX       0.105000
     64 H143         1.6350     0.7360     3.1730 hn         1 2PX       0.233467
@<TRIPOS>BOND
     1     1     2 2   
     2     2     3 1   
     3     2    15 1   
     4     3     4 1   
     5     3    14 1   
     6     3    33 1   
     7     4     5 1   
     8     4    34 1   
     9     4    35 1   
    10     5     6 2   
    11     5     9 1   
    12     6     7 1   
    13     6    36 1   
    14     7     8 1   
    15     7    37 1   
    16     8     9 ar  
    17     8    13 ar  
    18     9    10 ar  
    19    10    11 ar  
    20    10    38 1   
    21    11    12 ar  
    22    11    39 1   
    23    12    13 ar  
    24    12    40 1   
    25    13    41 1   
    26    14    42 1   
    27    14    43 1   
    28    14    64 1   
    29    15    16 1   
    30    15    44 1   
    31    16    17 1   
    32    16    19 1   
    33    16    45 1   
    34    17    18 1   
    35    17    46 1   
    36    17    47 1   
    37    18    21 1   
    38    18    48 1   
    39    18    49 1   
    40    19    20 1   
    41    19    50 1   
    42    19    51 1   
    43    20    21 1   
    44    20    52 1   
    45    20    53 1   
    46    21    22 1   
    47    22    23 1   
    48    22    54 1   
    49    22    55 1   
    50    23    24 2   
    51    23    27 1   
    52    24    25 1   
    53    24    56 1   
    54    25    26 1   
    55    25    57 1   
    56    26    27 ar  
    57    26    32 ar  
    58    27    28 ar  
    59    28    29 ar  
    60    28    58 1   
    61    29    30 1   
    62    29    31 ar  
    63    30    59 1   
    64    30    60 1   
    65    30    61 1   
    66    31    32 ar  
    67    31    62 1   
    68    32    63 1   
@<TRIPOS>SUBSTRUCTURE
     1 2PX         1 TEMP              0 ****  ****    0 ROOT
