@<TRIPOS>MOLECULE
molecule
   51    55     1     0     0
SMALL
bcc


@<TRIPOS>ATOM
      1 N1           0.0000     0.0000     0.0000 nc         1 2PY      -0.458100
      2 N3           6.0480     0.6310     5.6930 nb         1 2PY      -0.605000
      3 C4           0.7760    -0.0010     2.1420 ca         1 2PY      -0.032200
      4 C5           0.8780    -0.0030     3.5350 ca         1 2PY      -0.144000
      5 C6           2.1680    -0.0020     4.0760 ca         1 2PY      -0.092000
      6 C8           1.3350     0.0000     0.0000 cd         1 2PY       0.336800
      7 C10          6.8490     3.8650     2.4010 ce         1 2PY      -0.162000
      8 C13          8.5460     2.1200     1.0360 ce         1 2PY      -0.004200
      9 C15          6.3280     2.6660     1.7590 ce         1 2PY      -0.053000
     10 C17          9.5990     1.3040     1.0170 cf         1 2PY      -0.293800
     11 C20          4.6160    -0.0010     3.8520 cp         1 2PY      -0.098300
     12 C21          5.6950    -0.5950     3.2060 ca         1 2PY      -0.103000
     13 C22          6.9380    -0.5710     3.8100 ca         1 2PY      -0.011200
     14 C24          9.2920    -0.5710     3.4700 c3         1 2PY       0.117400
     15 C1           3.3000    -0.0010     3.2560 cp         1 2PY      -0.059000
     16 C2           3.1720    -0.0000     1.8590 ca         1 2PY      -0.055000
     17 C3           1.8840     0.0000     1.3010 ca         1 2PY      -0.242900
     18 N5          -0.3090    -0.0010     1.3080 na         1 2PY      -0.017100
     19 C11          8.1010     4.2960     2.1540 c2         1 2PY      -0.104200
     20 C12          8.9580     3.5590     1.1660 c3         1 2PY       0.114900
     21 C14          7.1410     1.8080     1.1150 cf         1 2PY      -0.188000
     22 N2          10.3920     3.4980     1.5200 n2         1 2PY      -0.499900
     23 C16         10.6820     2.2420     1.3380 cf         1 2PY       0.402500
     24 C18          7.0720     0.0440     5.0370 ca         1 2PY       0.336200
     25 C19          4.8430     0.5930     5.0820 ca         1 2PY       0.393200
     26 O1           8.0210    -1.1450     3.1980 os         1 2PY      -0.365900
     27 C23         10.2470    -0.8020     2.2920 c3         1 2PY       0.104500
     28 C25          9.7520    -0.1630     0.9720 c3         1 2PY      -0.002200
     29 N4          10.3970    -2.2470     2.0980 nz         1 2PY      -0.806600
     30 H5           0.0170     0.0140     4.1920 ha         1 2PY       0.151000
     31 H6           2.0390    -0.2200     5.1290 ha         1 2PY       0.151000
     32 H8           1.9330     0.0010    -0.9030 h4         1 2PY       0.046800
     33 H21          5.5620    -1.0720     2.2430 ha         1 2PY       0.148000
     34 H241         9.1760     0.4940     3.6320 h1         1 2PY       0.081700
     35 H242         9.7070    -1.0260     4.3610 h1         1 2PY       0.081700
     36 H2           3.8260    -0.1690     1.0130 ha         1 2PY       0.143000
     37 HN5         -1.2520    -0.0010     1.6430 hn         1 2PY       0.326700
     38 H11          8.4740     5.1900     2.6390 ha         1 2PY       0.166000
     39 H12          8.8590     4.0370     0.1990 h1         1 2PY       0.138700
     40 H14          6.7210     1.0370     0.4800 ha         1 2PY       0.143000
     41 H16         11.7150     1.9360     1.2260 h4         1 2PY       0.024800
     42 H18          8.0520     0.0560     5.4990 h4         1 2PY       0.015100
     43 H19          4.0030     1.0570     5.5850 h4         1 2PY       0.040100
     44 H23         11.2140    -0.3810     2.5410 hx         1 2PY       0.118700
     45 H251        10.4580    -0.4080     0.1880 hc         1 2PY       0.069200
     46 H252         8.7930    -0.5990     0.7200 hc         1 2PY       0.069200
     47 HN41         9.5290    -2.6330     1.7840 hn         1 2PY       0.457467
     48 HN42        11.1070    -2.4200     1.4140 hn         1 2PY       0.457467
     49 H10          6.1590     4.5270     2.9110 ha         1 2PY       0.155000
     50 H43         10.6740    -2.6720     2.9610 hn         1 2PY       0.457467
     51 H15          5.3150     2.3550     1.9800 ha         1 2PY       0.149000
@<TRIPOS>BOND
     1     1    18 1
     2     1     6 2
     3     2    24 ar
     4     2    25 ar
     5     3     4 ar
     6     3    18 1
     7     3    17 ar
     8     4     5 ar
     9     4    30 1
    10     5    15 ar
    11     5    31 1
    12     6    17 1
    13     6    32 1
    14     7    19 2
    15     7     9 1
    16     7    49 1
    17     8    20 1
    18     8    10 2
    19     8    21 1
    20     9    21 2
    21     9    51 1
    22    10    23 1
    23    10    28 1
    24    11    25 ar
    25    11    15 1
    26    11    12 ar
    27    12    13 ar
    28    12    33 1
    29    13    24 ar
    30    13    26 1
    31    14    26 1
    32    14    27 1
    33    14    34 1
    34    14    35 1
    35    15    16 ar
    36    16    17 ar
    37    16    36 1
    38    18    37 1
    39    19    20 1
    40    19    38 1
    41    20    22 1
    42    20    39 1
    43    21    40 1
    44    22    23 2
    45    23    41 1
    46    24    42 1
    47    25    43 1
    48    27    29 1
    49    27    28 1
    50    27    44 1
    51    28    45 1
    52    28    46 1
    53    29    47 1
    54    29    48 1
    55    50    29 1
@<TRIPOS>SUBSTRUCTURE
     1 2PY         1 TEMP              0 ****  ****    0 ROOT
