@<TRIPOS>MOLECULE
2PZ
   44    46     1     0     0
SMALL
bcc


@<TRIPOS>ATOM
      1 CAD          0.0000     0.0000     0.0000 ca         1 2PZ      -0.099000
      2 CAC          1.3780     0.0000     0.0000 ca         1 2PZ      -0.080000
      3 CAB          2.0850     0.0000     1.1950 ca         1 2PZ      -0.127000
      4 CAA          1.4270     0.0010     2.3910 ca         1 2PZ      -0.046000
      5 CAF          0.0300     0.0020     2.4150 ca         1 2PZ      -0.082800
      6 CAE         -0.6910     0.0080     1.2080 ca         1 2PZ      -0.229200
      7 NAG         -2.0290     0.0070     1.5330 na         1 2PZ       0.363600
      8 CAI         -2.1760     0.0020     2.8940 cc         1 2PZ      -0.266100
      9 CAH         -0.9700     0.0120     3.4850 cd         1 2PZ      -0.168400
     10 CAJ         -0.6970     0.0100     4.9670 c3         1 2PZ       0.257000
     11 NAK         -0.3870     1.3760     5.4100 n3         1 2PZ      -0.538600
     12 CAP         -1.5540     2.2540     5.2650 c3         1 2PZ       0.158800
     13 CAO         -1.1550     3.6950     5.5970 c3         1 2PZ      -0.036400
     14 CAL          0.1140     1.3800     6.7900 c3         1 2PZ       0.158800
     15 CAM          0.5620     2.7940     7.1670 c3         1 2PZ      -0.036400
     16 CAN         -0.6230     3.7540     7.0310 c3         1 2PZ      -0.002300
     17 NAQ         -0.1840     5.1190     7.3330 ns         1 2PZ      -0.093900
     18 C           -0.1580     5.5500     8.6110 c          1 2PZ       0.541100
     19 O           -0.4960     4.8080     9.5080 o          1 2PZ      -0.649100
     20 CA           0.2930     6.9540     8.9230 c3         1 2PZ      -0.135200
     21 N            0.2330     7.1760    10.3730 nz         1 2PZ       0.115400
     22 H1          -0.5430     0.0000    -0.9370 ha         1 2PZ       0.103000
     23 H2           1.9150    -0.0010    -0.9410 ha         1 2PZ       0.105000
     24 H3           3.1690    -0.0000     1.1780 ha         1 2PZ       0.104000
     25 H4           1.9860     0.0010     3.3190 ha         1 2PZ       0.101000
     26 H5          -2.7810     0.0010     0.8740 hn         1 2PZ       0.116700
     27 H6          -3.1240    -0.0100     3.4170 h4         1 2PZ       0.139000
     28 H7          -1.5710    -0.3510     5.4950 h1         1 2PZ       0.013200
     29 H8           0.1450    -0.6380     5.1780 h1         1 2PZ       0.013200
     30 H10         -2.3340     1.9320     5.9450 h1         1 2PZ       0.020450
     31 H11         -1.9160     2.2070     4.2450 h1         1 2PZ       0.020450
     32 H12         -0.3820     4.0210     4.9110 hc         1 2PZ       0.026700
     33 H13         -2.0210     4.3390     5.5060 hc         1 2PZ       0.026700
     34 H14          0.9550     0.7030     6.8700 h1         1 2PZ       0.020450
     35 H15         -0.6760     1.0630     7.4600 h1         1 2PZ       0.020450
     36 H16          0.9140     2.7990     8.1910 hc         1 2PZ       0.026700
     37 H17          1.3590     3.1080     6.5030 hc         1 2PZ       0.026700
     38 H18         -1.4060     3.4600     7.7180 h1         1 2PZ       0.064700
     39 H19          0.0600     5.7430     6.5900 hn         1 2PZ       0.180500
     40 H20          1.3110     7.0910     8.5780 hx         1 2PZ       0.091700
     41 H21         -0.3560     7.6620     8.4210 hx         1 2PZ       0.091700
     42 H22          0.5000     8.1190    10.5770 hn         1 2PZ       0.227800
     43 H23          0.8580     6.5450    10.8330 hn         1 2PZ       0.227800
     44 HN3         -0.7010     7.0170    10.6960 hn         1 2PZ       0.227800
@<TRIPOS>BOND
     1     1     2 ar  
     2     1     6 ar  
     3     1    22 1   
     4     2     3 ar  
     5     2    23 1   
     6     3     4 ar  
     7     3    24 1   
     8     4     5 ar  
     9     4    25 1   
    10     5     6 ar  
    11     5     9 1   
    12     6     7 1   
    13     7     8 1   
    14     7    26 1   
    15     8     9 2   
    16     8    27 1   
    17     9    10 1   
    18    10    11 1   
    19    10    28 1   
    20    10    29 1   
    21    11    12 1   
    22    11    14 1   
    23    12    13 1   
    24    12    30 1   
    25    12    31 1   
    26    13    16 1   
    27    13    32 1   
    28    13    33 1   
    29    14    15 1   
    30    14    34 1   
    31    14    35 1   
    32    15    16 1   
    33    15    36 1   
    34    15    37 1   
    35    16    17 1   
    36    16    38 1   
    37    17    18 1   
    38    17    39 1   
    39    18    19 2   
    40    18    20 1   
    41    20    21 1   
    42    20    40 1   
    43    20    41 1   
    44    21    42 1   
    45    21    43 1   
    46    21    44 1   
@<TRIPOS>SUBSTRUCTURE
     1 2PZ         1 TEMP              0 ****  ****    0 ROOT
