@<TRIPOS>MOLECULE
2Q0
   36    37     1     0     0
SMALL
bcc


@<TRIPOS>ATOM
      1 CAA          0.0000     0.0000     0.0000 c3         1 2Q0      -0.001600
      2 CAR          1.5290     0.0000     0.0000 c3         1 2Q0      -0.067700
      3 CAB          2.0400     0.0000     1.4430 c3         1 2Q0      -0.001600
      4 CAK          2.0400    -1.2490    -0.7210 c3         1 2Q0       0.007000
      5 NAS          1.6520    -1.1900    -2.1330 n          1 2Q0       0.125600
      6 CAO          0.5060    -1.6840    -2.5880 c          1 2Q0       0.599700
      7 OAC         -0.2950    -2.2200    -1.8430 o          1 2Q0      -0.710500
      8 CAP          2.4250    -0.6250    -3.0830 cs         1 2Q0       0.473300
      9 SAE          3.8540     0.0680    -2.9040 s          1 2Q0      -0.467400
     10 SAL          1.4920    -0.8290    -4.5770 sx         1 2Q0      -0.091900
     11 CAQ          0.2600    -1.5620    -3.9520 ce         1 2Q0      -0.785400
     12 CAF         -0.9630    -2.0450    -4.6880 c3         1 2Q0       0.207100
     13 CAN         -0.8310    -1.7150    -6.1530 ca         1 2Q0      -0.155300
     14 CAI         -1.2960    -0.5050    -6.6320 ca         1 2Q0      -0.086000
     15 CAG         -1.1770    -0.2010    -7.9750 ca         1 2Q0      -0.142500
     16 CAM         -0.5890    -1.1110    -8.8410 ca         1 2Q0       0.124100
     17 OAD         -0.4690    -0.8140   -10.1620 oh         1 2Q0      -0.501100
     18 CAH         -0.1220    -2.3240    -8.3570 ca         1 2Q0      -0.142500
     19 CAJ         -0.2400    -2.6220    -7.0140 ca         1 2Q0      -0.086000
     20 H1          -0.3610     0.6880     0.7550 hc         1 2Q0       0.011700
     21 H2          -0.3610     0.3100    -0.9730 hc         1 2Q0       0.011700
     22 H3          -0.3610    -0.9980     0.2180 hc         1 2Q0       0.011700
     23 H4           1.8900     0.8840    -0.5110 hc         1 2Q0       0.036700
     24 H5           3.1220    -0.0620     1.4430 hc         1 2Q0       0.011700
     25 H6           1.6290    -0.8520     1.9710 hc         1 2Q0       0.011700
     26 H7           1.7310     0.9140     1.9350 hc         1 2Q0       0.011700
     27 H8           3.1190    -1.2950    -0.6440 h1         1 2Q0       0.061200
     28 H9           1.6070    -2.1320    -0.2640 h1         1 2Q0       0.061200
     29 H10         -1.0580    -3.1170    -4.5660 hc         1 2Q0       0.026700
     30 H11         -1.8420    -1.5570    -4.2850 hc         1 2Q0       0.026700
     31 H12         -1.7560     0.2050    -5.9550 ha         1 2Q0       0.118000
     32 H13         -1.5410     0.7480    -8.3500 ha         1 2Q0       0.119000
     33 H14         -1.2360    -1.1120   -10.6220 ho         1 2Q0       0.408000
     34 H15          0.3390    -3.0350    -9.0320 ha         1 2Q0       0.119000
     35 H16          0.1240    -3.5690    -6.6350 ha         1 2Q0       0.118000
     36 H17          1.7540    -0.4700    -5.8280 hs         1 2Q0       0.538000
@<TRIPOS>BOND
     1     1     2 1   
     2     1    20 1   
     3     1    21 1   
     4     1    22 1   
     5     2     3 1   
     6     2     4 1   
     7     2    23 1   
     8     3    24 1   
     9     3    25 1   
    10     3    26 1   
    11     4     5 1   
    12     4    27 1   
    13     4    28 1   
    14     5     6 1   
    15     5     8 1   
    16     6     7 2   
    17     6    11 1   
    18     8     9 2   
    19     8    10 1   
    20    10    11 2   
    21    10    36 1   
    22    11    12 1   
    23    12    13 1   
    24    12    29 1   
    25    12    30 1   
    26    13    14 ar  
    27    13    19 ar  
    28    14    15 ar  
    29    14    31 1   
    30    15    16 ar  
    31    15    32 1   
    32    16    17 1   
    33    16    18 ar  
    34    17    33 1   
    35    18    19 ar  
    36    18    34 1   
    37    19    35 1   
@<TRIPOS>SUBSTRUCTURE
     1 2Q0         1 TEMP              0 ****  ****    0 ROOT
