@<TRIPOS>MOLECULE
molecule
   36    37     1     0     0
SMALL
bcc


@<TRIPOS>ATOM
      1 CAA          0.0000     0.0000     0.0000 c3         1 2Q0      -0.088600
      2 CAR          1.5290     0.0000     0.0000 c3         1 2Q0      -0.093700
      3 CAB          2.0400     0.0000     1.4430 c3         1 2Q0      -0.088600
      4 CAK          2.0400    -1.2490    -0.7210 c3         1 2Q0       0.091000
      5 NAS          1.6520    -1.1900    -2.1330 n          1 2Q0      -0.383400
      6 CAO          0.5060    -1.6840    -2.5880 c          1 2Q0       0.687700
      7 OAC         -0.2950    -2.2200    -1.8430 o          1 2Q0      -0.582500
      8 CAP          2.4250    -0.6250    -3.0830 cs         1 2Q0       0.389300
      9 SAE          3.8540     0.0680    -2.9040 s          1 2Q0      -0.362400
     10 SAL          1.4920    -0.8290    -4.5770 sx         1 2Q0       0.221100
     11 CAQ          0.2600    -1.5620    -3.9520 ce         1 2Q0      -0.482400
     12 CAF         -0.9630    -2.0450    -4.6880 c3         1 2Q0       0.032100
     13 CAN         -0.8310    -1.7150    -6.1530 ca         1 2Q0      -0.131300
     14 CAI         -1.2960    -0.5050    -6.6320 ca         1 2Q0      -0.104500
     15 CAG         -1.1770    -0.2010    -7.9750 ca         1 2Q0      -0.146500
     16 CAM         -0.5890    -1.1110    -8.8410 ca         1 2Q0       0.118100
     17 OAD         -0.4690    -0.8140   -10.1620 oh         1 2Q0      -0.519100
     18 CAH         -0.1220    -2.3240    -8.3570 ca         1 2Q0      -0.146500
     19 CAJ         -0.2400    -2.6220    -7.0140 ca         1 2Q0      -0.104500
     20 H1          -0.3610     0.6880     0.7550 hc         1 2Q0       0.038867
     21 H2          -0.3610     0.3100    -0.9730 hc         1 2Q0       0.038867
     22 H3          -0.3610    -0.9980     0.2180 hc         1 2Q0       0.038867
     23 H4           1.8900     0.8840    -0.5110 hc         1 2Q0       0.062700
     24 H5           3.1220    -0.0620     1.4430 hc         1 2Q0       0.038867
     25 H6           1.6290    -0.8520     1.9710 hc         1 2Q0       0.038867
     26 H7           1.7310     0.9140     1.9350 hc         1 2Q0       0.038867
     27 H8           3.1190    -1.2950    -0.6440 h1         1 2Q0       0.077200
     28 H9           1.6070    -2.1320    -0.2640 h1         1 2Q0       0.077200
     29 H10         -1.0580    -3.1170    -4.5660 hc         1 2Q0       0.083700
     30 H11         -1.8420    -1.5570    -4.2850 hc         1 2Q0       0.083700
     31 H12         -1.7560     0.2050    -5.9550 ha         1 2Q0       0.136000
     32 H13         -1.5410     0.7480    -8.3500 ha         1 2Q0       0.146000
     33 H14         -1.2360    -1.1120   -10.6220 ho         1 2Q0       0.422000
     34 H15          0.3390    -3.0350    -9.0320 ha         1 2Q0       0.146000
     35 H16          0.1240    -3.5690    -6.6350 ha         1 2Q0       0.136000
     36 H17          1.7540    -0.4700    -5.8280 hs         1 2Q0       0.090000
@<TRIPOS>BOND
     1    15    14 ar
     2    15    16 ar
     3    14    13 ar
     4    17    16 1
     5    16    18 ar
     6     1     2 1
     7    13    12 1
     8    13    19 ar
     9     3     2 1
    10    12    11 1
    11     7     6 2
    12    18    19 ar
    13     2     4 1
    14    11     6 1
    15    11    10 2
    16     6     5 1
    17     5     4 1
    18     5     8 1
    19    10     8 1
    20     8     9 2
    21     1    20 1
    22     1    21 1
    23     1    22 1
    24     2    23 1
    25     3    24 1
    26     3    25 1
    27     3    26 1
    28     4    27 1
    29     4    28 1
    30    12    29 1
    31    12    30 1
    32    14    31 1
    33    15    32 1
    34    17    33 1
    35    18    34 1
    36    19    35 1
    37    10    36 1
@<TRIPOS>SUBSTRUCTURE
     1 2Q0         1 TEMP              0 ****  ****    0 ROOT
