@<TRIPOS>MOLECULE
2Q2
   24    23     1     0     0
SMALL
bcc


@<TRIPOS>ATOM
      1 OAA        -0.0310   -0.6410   -0.3290 o         1 2Q2     -0.829300
      2 CAI         1.0330    0.0020   -0.1100 c         1 2Q2      0.896600
      3 OAC         1.2750    0.6820    0.9260 o         1 2Q2     -0.829300
      4 CAK         2.1100   -0.0540   -1.2250 c3        1 2Q2     -0.023900
      5 OAE         1.5560   -0.4890   -2.4570 oh        1 2Q2     -0.657800
      6 CAM         2.8430    1.2830   -1.4180 c3        1 2Q2      0.133100
      7 OAG         2.0010    2.4140   -1.2460 oh        1 2Q2     -0.641800
      8 CAL         3.4290    1.4240   -2.8350 c3        1 2Q2      0.162100
      9 OAF         4.2130    0.3040   -3.2120 oh        1 2Q2     -0.619800
     10 CAJ         4.3190    2.6720   -2.9320 c3        1 2Q2      0.148100
     11 OAD         5.4280    2.5190   -2.0610 oh        1 2Q2     -0.583800
     12 CAH         4.8010    2.8550   -4.3750 c3        1 2Q2      0.087400
     13 OAB         5.6190    4.0190   -4.3950 oh        1 2Q2     -0.620800
     14 H2          2.8750   -0.8280   -0.9310 h1        1 2Q2      0.035700
     15 H3          0.6180   -0.6830   -2.2970 ho        1 2Q2      0.436000
     16 H4          3.6760    1.3320   -0.6600 h1        1 2Q2      0.054700
     17 H5          1.5550    2.3000   -0.3910 ho        1 2Q2      0.446000
     18 H6          2.5760    1.5410   -3.5640 h1        1 2Q2      0.049700
     19 H7          3.6580   -0.4770   -3.0860 ho        1 2Q2      0.425000
     20 H8          3.7100    3.5640   -2.6110 h1        1 2Q2      0.063700
     21 H9          5.9630    3.3150   -2.1740 ho        1 2Q2      0.397000
     22 H10         5.3880    1.9540   -4.6920 h1        1 2Q2      0.039200
     23 H11         3.9270    3.0000   -5.0620 h1        1 2Q2      0.039200
     24 H12         6.0960    4.0030   -5.2310 ho        1 2Q2      0.392000
@<TRIPOS>BOND
     1    1    2 1   
     2    2    3 1   
     3    2    4 1   
     4    4    5 1   
     5    4    6 1   
     6    4   14 1   
     7    5   15 1   
     8    6    7 1   
     9    6    8 1   
    10    6   16 1   
    11    7   17 1   
    12    8    9 1   
    13    8   10 1   
    14    8   18 1   
    15    9   19 1   
    16   10   11 1   
    17   10   12 1   
    18   10   20 1   
    19   11   21 1   
    20   12   13 1   
    21   12   22 1   
    22   12   23 1   
    23   13   24 1   
@<TRIPOS>SUBSTRUCTURE
     1 2Q2         1 TEMP              0 ****  ****    0 ROOT
