@<TRIPOS>MOLECULE
molecule
   24    23     1     0     0
SMALL
bcc


@<TRIPOS>ATOM
      1 OAA          0.0000     0.0000     0.0000 o          1 2Q2      -0.840800
      2 CAI          1.2080     0.0000     0.0000 c          1 2Q2       0.870600
      3 OAC          1.8790     0.0000     1.1630 o          1 2Q2      -0.840800
      4 CAK          1.9630    -0.0050    -1.3050 c3         1 2Q2       0.022100
      5 OAE          1.0390    -0.1280    -2.3890 oh         1 2Q2      -0.615800
      6 CAM          2.7450     1.3010    -1.4480 c3         1 2Q2       0.172100
      7 OAG          1.8530     2.4080    -1.3100 oh         1 2Q2      -0.603800
      8 CAL          3.4100     1.3500    -2.8250 c3         1 2Q2       0.140100
      9 OAF          4.3030     0.2430    -2.9620 oh         1 2Q2      -0.594800
     10 CAJ          4.1930     2.6570    -2.9670 c3         1 2Q2       0.140100
     11 OAD          5.1160     2.7790    -1.8840 oh         1 2Q2      -0.586800
     12 CAH          4.9580     2.6510    -4.2930 c3         1 2Q2       0.105400
     13 OAB          5.5950     3.9160    -4.4800 oh         1 2Q2      -0.621800
     14 H2           2.6510    -0.8420    -1.3200 h1         1 2Q2       0.031700
     15 H3           0.7570    -1.0250    -2.4610 ho         1 2Q2       0.386000
     16 H4           3.5050     1.3530    -0.6780 h1         1 2Q2       0.079700
     17 H5           2.0070     2.8360    -0.4840 ho         1 2Q2       0.406000
     18 H6           2.6500     1.2980    -3.5950 h1         1 2Q2       0.059700
     19 H7           4.0580    -0.2670    -3.7170 ho         1 2Q2       0.388000
     20 H8           3.5050     3.4940    -2.9510 h1         1 2Q2       0.055700
     21 H9           5.2780     3.6920    -1.7110 ho         1 2Q2       0.396000
     22 H10          4.2670     2.4700    -5.1080 h1         1 2Q2       0.028200
     23 H11          5.7070     1.8690    -4.2740 h1         1 2Q2       0.028200
     24 H12          5.9560     3.9610    -5.3490 ho         1 2Q2       0.392000
@<TRIPOS>BOND
     1    13    12 1
     2    12    10 1
     3    11    10 1
     4    10     8 1
     5     9     8 1
     6     8     6 1
     7     6     7 1
     8     6     4 1
     9     4     5 1
    10     4     2 1
    11     1     2 1
    12     2     3 1
    13     4    14 1
    14     5    15 1
    15     6    16 1
    16     7    17 1
    17     8    18 1
    18     9    19 1
    19    10    20 1
    20    11    21 1
    21    12    22 1
    22    12    23 1
    23    13    24 1
@<TRIPOS>SUBSTRUCTURE
     1 2Q2         1 TEMP              0 ****  ****    0 ROOT
