@<TRIPOS>MOLECULE
2Q4
   65    66     1     0     0
SMALL
bcc


@<TRIPOS>ATOM
      1 Cl           0.0000     0.0000     0.0000 cl         1 2Q4      -0.024400
      2 C6           1.7370     0.0000     0.0000 ca         1 2Q4      -0.031600
      3 C3           2.4290     0.0000     1.1990 ca         1 2Q4      -0.098000
      4 C4           2.4290    -0.0050    -1.1980 ca         1 2Q4      -0.098000
      5 C2           3.8110    -0.0050    -1.1970 ca         1 2Q4      -0.086500
      6 C5           4.5020     0.0000    -0.0000 ca         1 2Q4      -0.128300
      7 C1           3.8110    -0.0060     1.1980 ca         1 2Q4      -0.086500
      8 C12          6.0090    -0.0010    -0.0000 c3         1 2Q4       0.237100
      9 C9           6.5180    -0.8830    -1.1410 c3         1 2Q4      -0.089400
     10 O28          6.4850    -0.5120     1.2460 oh         1 2Q4      -0.585800
     11 C13          6.5190     1.4300    -0.1910 c3         1 2Q4      -0.066000
     12 C14          5.9810     2.3190     0.9320 c3         1 2Q4      -0.015600
     13 C15          6.0380     1.9660    -1.5410 c3         1 2Q4      -0.015600
     14 C11          8.0500     1.4300    -0.1570 c3         1 2Q4       0.035000
     15 N24          8.5470     0.4740    -1.1550 n          1 2Q4      -0.136800
     16 C10          8.0500    -0.9090    -1.1170 c3         1 2Q4       0.054000
     17 C7           9.4400     0.8560    -2.0880 c          1 2Q4       0.586100
     18 O26          9.7850     0.0790    -2.9530 o          1 2Q4      -0.662100
     19 C21         10.0110     2.2510    -2.0570 c3         1 2Q4      -0.055300
     20 C22         10.9370     2.3970    -0.8480 c3         1 2Q4      -0.071700
     21 C17         12.1640     1.5010    -1.0330 c3         1 2Q4      -0.010600
     22 C16         11.3840     3.8540    -0.7200 c3         1 2Q4      -0.010600
     23 N25         10.7720     2.4950    -3.2860 ns         1 2Q4      -0.183900
     24 C8          10.9450     3.7550    -3.7330 c          1 2Q4       0.574100
     25 O27         10.4710     4.6860    -3.1170 o          1 2Q4      -0.635100
     26 C20         11.7260     4.0050    -4.9960 c3         1 2Q4      -0.097400
     27 C23         11.9090     5.5110    -5.1930 c3         1 2Q4       0.184800
     28 O29         10.6290     6.1480    -5.2110 oh         1 2Q4      -0.562800
     29 C19         12.7430     6.0790    -4.0430 c3         1 2Q4      -0.039100
     30 C18         12.6260     5.7700    -6.5190 c3         1 2Q4      -0.039100
     31 H1           1.8880    -0.0040     2.1370 ha         1 2Q4       0.116500
     32 H2           1.8880    -0.0090    -2.1360 ha         1 2Q4       0.116500
     33 H3           4.3530    -0.0050    -2.1350 ha         1 2Q4       0.123000
     34 H4           4.3530    -0.0040     2.1350 ha         1 2Q4       0.123000
     35 H5           6.1790    -0.4800    -2.0880 hc         1 2Q4       0.037700
     36 H6           6.1390    -1.8900    -1.0140 hc         1 2Q4       0.037700
     37 H7           6.1820    -1.3980     1.3590 ho         1 2Q4       0.400000
     38 H8           6.4870     3.2760     0.9080 hc         1 2Q4       0.018033
     39 H9           6.1600     1.8410     1.8880 hc         1 2Q4       0.018033
     40 H10          4.9170     2.4680     0.7970 hc         1 2Q4       0.018033
     41 H11          4.9590     1.8860    -1.5980 hc         1 2Q4       0.018033
     42 H12          6.3280     3.0060    -1.6400 hc         1 2Q4       0.018033
     43 H13          6.4870     1.3890    -2.3400 hc         1 2Q4       0.018033
     44 H14          8.4170     2.4220    -0.3910 h1         1 2Q4       0.044200
     45 H15          8.3900     1.1340     0.8290 h1         1 2Q4       0.044200
     46 H16          8.4170    -1.4490    -1.9820 h1         1 2Q4       0.040200
     47 H17          8.3910    -1.3920    -0.2090 h1         1 2Q4       0.040200
     48 H18          9.2040     2.9700    -1.9830 h1         1 2Q4       0.072700
     49 H19         10.4070     2.1010     0.0500 hc         1 2Q4       0.034700
     50 H20         12.6540     1.7490    -1.9670 hc         1 2Q4       0.013367
     51 H21         12.8520     1.6570    -0.2110 hc         1 2Q4       0.013367
     52 H22         11.8540     0.4630    -1.0520 hc         1 2Q4       0.013367
     53 H23         11.7090     4.0440     0.2960 hc         1 2Q4       0.013367
     54 H24         10.5550     4.5080    -0.9610 hc         1 2Q4       0.013367
     55 H25         12.2040     4.0410    -1.4020 hc         1 2Q4       0.013367
     56 H26         11.1800     1.7280    -3.7820 hn         1 2Q4       0.198500
     57 H27         11.1880     3.5940    -5.8410 hc         1 2Q4       0.034700
     58 H28         12.6970     3.5300    -4.9200 hc         1 2Q4       0.034700
     59 H29         10.6660     6.9140    -5.7590 ho         1 2Q4       0.383000
     60 H30         13.3100     6.9320    -4.3950 hc         1 2Q4       0.014533
     61 H31         13.4230     5.3180    -3.6800 hc         1 2Q4       0.014533
     62 H32         12.0860     6.3890    -3.2390 hc         1 2Q4       0.014533
     63 H33         13.5870     5.2700    -6.5140 hc         1 2Q4       0.014533
     64 H34         12.0250     5.3880    -7.3350 hc         1 2Q4       0.014533
     65 H35         12.7750     6.8350    -6.6480 hc         1 2Q4       0.014533
@<TRIPOS>BOND
     1     1     2 1   
     2     2     3 ar  
     3     2     4 ar  
     4     3     7 ar  
     5     3    31 1   
     6     4     5 ar  
     7     4    32 1   
     8     5     6 ar  
     9     5    33 1   
    10     6     7 ar  
    11     6     8 1   
    12     7    34 1   
    13     8     9 1   
    14     8    10 1   
    15     8    11 1   
    16     9    16 1   
    17     9    35 1   
    18     9    36 1   
    19    10    37 1   
    20    11    12 1   
    21    11    13 1   
    22    11    14 1   
    23    12    38 1   
    24    12    39 1   
    25    12    40 1   
    26    13    41 1   
    27    13    42 1   
    28    13    43 1   
    29    14    15 1   
    30    14    44 1   
    31    14    45 1   
    32    15    16 1   
    33    15    17 1   
    34    16    46 1   
    35    16    47 1   
    36    17    18 2   
    37    17    19 1   
    38    19    20 1   
    39    19    23 1   
    40    19    48 1   
    41    20    21 1   
    42    20    22 1   
    43    20    49 1   
    44    21    50 1   
    45    21    51 1   
    46    21    52 1   
    47    22    53 1   
    48    22    54 1   
    49    22    55 1   
    50    23    24 1   
    51    23    56 1   
    52    24    25 2   
    53    24    26 1   
    54    26    27 1   
    55    26    57 1   
    56    26    58 1   
    57    27    28 1   
    58    27    29 1   
    59    27    30 1   
    60    28    59 1   
    61    29    60 1   
    62    29    61 1   
    63    29    62 1   
    64    30    63 1   
    65    30    64 1   
    66    30    65 1   
@<TRIPOS>SUBSTRUCTURE
     1 2Q4         1 TEMP              0 ****  ****    0 ROOT
