@<TRIPOS>MOLECULE
2Q5
   43    42     1     0     0
SMALL
bcc


@<TRIPOS>ATOM
      1 OH         -0.5490    0.7110    0.0870 oh        1 2Q5     -0.597800
      2 C2          0.7170    0.5310   -0.5220 c3        1 2Q5      0.146100
      3 C1          1.7050   -0.1010    0.4390 c3        1 2Q5     -0.127100
      4 C3          1.2450    1.8620   -1.0700 c3        1 2Q5      0.092400
      5 O2          1.3210    2.7570    0.0360 os        1 2Q5     -0.430600
      6 C5          1.7620    4.0690   -0.3250 c3        1 2Q5      0.147100
      7 C6          0.6770    4.8460   -1.0400 c3        1 2Q5     -0.115100
      8 C4          2.1840    4.7390    0.9890 c3        1 2Q5      0.131400
      9 O3          1.0180    5.2610    1.6160 os        1 2Q5     -0.425600
     10 C7          1.2560    5.7460    2.9420 c3        1 2Q5      0.108100
     11 C9          1.2860    4.6110    3.9440 c3        1 2Q5     -0.114100
     12 C8          0.1260    6.7430    3.2380 c3        1 2Q5      0.138400
     13 O4         -1.0680    6.1210    3.6770 os        1 2Q5     -0.432600
     14 C11        -1.8800    5.5720    2.6280 c3        1 2Q5      0.089100
     15 C12        -2.7760    6.6450    2.0440 c3        1 2Q5     -0.115100
     16 C10        -2.7000    4.4600    3.2950 c3        1 2Q5      0.134400
     17 O5         -3.5150    4.9420    4.3420 oh        1 2Q5     -0.600800
     18 H1         -0.4340    1.3600    0.7940 ho        1 2Q5      0.415000
     19 H2          0.5110   -0.1590   -1.3890 h1        1 2Q5      0.072700
     20 H3          1.9490    0.6120    1.2630 hc        1 2Q5      0.046033
     21 H4          1.2640   -1.0250    0.8830 hc        1 2Q5      0.046033
     22 H5          2.6460   -0.3660   -0.0980 hc        1 2Q5      0.046033
     23 H6          2.2630    1.7260   -1.5210 h1        1 2Q5      0.037200
     24 H7          0.5380    2.2670   -1.8410 h1        1 2Q5      0.037200
     25 H8          2.6770    3.9830   -0.9790 h1        1 2Q5      0.037700
     26 H9          0.9840    5.9150   -1.1350 hc        1 2Q5      0.048367
     27 H10        -0.2730    4.7980   -0.4520 hc        1 2Q5      0.048367
     28 H11         0.4940    4.4280   -2.0570 hc        1 2Q5      0.048367
     29 H12         2.6860    3.9900    1.6550 h1        1 2Q5      0.039200
     30 H13         2.8890    5.5840    0.7650 h1        1 2Q5      0.039200
     31 H14         2.2320    6.3080    2.9630 h1        1 2Q5      0.037700
     32 H15         2.1390    3.9230    3.7390 hc        1 2Q5      0.047033
     33 H16         1.3890    5.0250    4.9750 hc        1 2Q5      0.047033
     34 H17         0.3320    4.0300    3.8850 hc        1 2Q5      0.047033
     35 H18        -0.0630    7.3780    2.3340 h1        1 2Q5      0.056700
     36 H19         0.4290    7.3830    4.1110 h1        1 2Q5      0.056700
     37 H20        -1.2240    5.1230    1.8300 h1        1 2Q5      0.075700
     38 H21        -3.3750    6.2190    1.2050 hc        1 2Q5      0.044700
     39 H22        -3.4750    7.0260    2.8290 hc        1 2Q5      0.044700
     40 H23        -2.1680    7.4980    1.6600 hc        1 2Q5      0.044700
     41 H24        -3.4110    4.0140    2.5510 h1        1 2Q5      0.049200
     42 H25        -2.0050    3.6700    3.6870 h1        1 2Q5      0.049200
     43 H26        -2.9440    5.4440    4.9380 ho        1 2Q5      0.413000
@<TRIPOS>BOND
     1    1    2 1   
     2    1   18 1   
     3    2    3 1   
     4    2    4 1   
     5    2   19 1   
     6    3   20 1   
     7    3   21 1   
     8    3   22 1   
     9    4    5 1   
    10    4   23 1   
    11    4   24 1   
    12    5    6 1   
    13    6    7 1   
    14    6    8 1   
    15    6   25 1   
    16    7   26 1   
    17    7   27 1   
    18    7   28 1   
    19    8    9 1   
    20    8   29 1   
    21    8   30 1   
    22    9   10 1   
    23   10   11 1   
    24   10   12 1   
    25   10   31 1   
    26   11   32 1   
    27   11   33 1   
    28   11   34 1   
    29   12   13 1   
    30   12   35 1   
    31   12   36 1   
    32   13   14 1   
    33   14   15 1   
    34   14   16 1   
    35   14   37 1   
    36   15   38 1   
    37   15   39 1   
    38   15   40 1   
    39   16   17 1   
    40   16   41 1   
    41   16   42 1   
    42   17   43 1   
@<TRIPOS>SUBSTRUCTURE
     1 2Q5         1 TEMP              0 ****  ****    0 ROOT
