@<TRIPOS>MOLECULE
molecule
   43    42     1     0     0
SMALL
bcc


@<TRIPOS>ATOM
      1 OH           0.0000     0.0000     0.0000 oh         1 2Q5      -0.587800
      2 C2           1.4290     0.0000     0.0000 c3         1 2Q5       0.150100
      3 C1           1.9390     0.0000     1.4420 c3         1 2Q5      -0.103100
      4 C3           1.9390     1.2480    -0.7220 c3         1 2Q5       0.130400
      5 O2           1.5620     2.4130     0.0150 os         1 2Q5      -0.393600
      6 C5           1.9920     3.6400    -0.5760 c3         1 2Q5       0.146100
      7 C6           0.9140     4.1510    -1.5330 c3         1 2Q5      -0.112100
      8 C4           2.2340     4.6780     0.5220 c3         1 2Q5       0.140400
      9 O3           0.9960     4.9840     1.1690 os         1 2Q5      -0.396600
     10 C7           1.1120     5.9480     2.2160 c3         1 2Q5       0.145100
     11 C9           1.3880     5.2330     3.5410 c3         1 2Q5      -0.111100
     12 C8          -0.1940     6.7400     2.3260 c3         1 2Q5       0.140400
     13 O4          -1.2480     5.8650     2.7320 os         1 2Q5      -0.395600
     14 C11         -2.5180     6.5070     2.8650 c3         1 2Q5       0.144100
     15 C12         -2.6790     7.0260     4.2960 c3         1 2Q5      -0.112100
     16 C10         -3.6310     5.5050     2.5580 c3         1 2Q5       0.146400
     17 O5          -3.6260     4.4700     3.5430 oh         1 2Q5      -0.597800
     18 H1          -0.3140    -0.8220    -0.3380 ho         1 2Q5       0.393000
     19 H2           1.7890    -0.8850    -0.5100 h1         1 2Q5       0.028700
     20 H3           1.3140     0.6460     2.0460 hc         1 2Q5       0.045700
     21 H4           1.9060    -1.0080     1.8370 hc         1 2Q5       0.045700
     22 H5           2.9600     0.3630     1.4640 hc         1 2Q5       0.045700
     23 H6           1.5070     1.2930    -1.7140 h1         1 2Q5       0.024700
     24 H7           3.0180     1.2040    -0.8000 h1         1 2Q5       0.024700
     25 H8           2.9120     3.4730    -1.1250 h1         1 2Q5       0.032700
     26 H9          -0.0650     3.9680    -1.1050 hc         1 2Q5       0.044033
     27 H10          0.9960     3.6320    -2.4800 hc         1 2Q5       0.044033
     28 H11          1.0450     5.2140    -1.6900 hc         1 2Q5       0.044033
     29 H12          2.9320     4.2800     1.2480 h1         1 2Q5       0.027200
     30 H13          2.6440     5.5790     0.0820 h1         1 2Q5       0.027200
     31 H14          1.9280     6.6260     1.9950 h1         1 2Q5       0.031700
     32 H15          0.8110     4.3180     3.5840 hc         1 2Q5       0.045700
     33 H16          1.1050     5.8780     4.3640 hc         1 2Q5       0.045700
     34 H17          2.4430     4.9990     3.6110 hc         1 2Q5       0.045700
     35 H18         -0.4350     7.1730     1.3630 h1         1 2Q5       0.026700
     36 H19         -0.0770     7.5290     3.0580 h1         1 2Q5       0.026700
     37 H20         -2.5780     7.3370     2.1710 h1         1 2Q5       0.033700
     38 H21         -3.7270     7.2090     4.4980 hc         1 2Q5       0.042700
     39 H22         -2.1230     7.9500     4.4090 hc         1 2Q5       0.042700
     40 H23         -2.2990     6.2890     4.9920 hc         1 2Q5       0.042700
     41 H24         -3.4680     5.0720     1.5790 h1         1 2Q5       0.027200
     42 H25         -4.5890     6.0120     2.5740 h1         1 2Q5       0.027200
     43 H26         -4.2190     3.7850     3.2830 ho         1 2Q5       0.399000
@<TRIPOS>BOND
     1    15    14 1
     2    17    16 1
     3    16    14 1
     4    14    13 1
     5    13    12 1
     6    12    10 1
     7    11    10 1
     8    10     9 1
     9     9     8 1
    10     8     6 1
    11     6     5 1
    12     6     7 1
    13     5     4 1
    14     1     2 1
    15     4     2 1
    16     2     3 1
    17     1    18 1
    18     2    19 1
    19     3    20 1
    20     3    21 1
    21     3    22 1
    22     4    23 1
    23     4    24 1
    24     6    25 1
    25     7    26 1
    26     7    27 1
    27     7    28 1
    28     8    29 1
    29     8    30 1
    30    10    31 1
    31    11    32 1
    32    11    33 1
    33    11    34 1
    34    12    35 1
    35    12    36 1
    36    14    37 1
    37    15    38 1
    38    15    39 1
    39    15    40 1
    40    16    41 1
    41    16    42 1
    42    17    43 1
@<TRIPOS>SUBSTRUCTURE
     1 2Q5         1 TEMP              0 ****  ****    0 ROOT
