@<TRIPOS>MOLECULE
molecule
  110   115     1     0     0
SMALL
bcc


@<TRIPOS>ATOM
      1 O1           0.0000     0.0000     0.0000 o          1 2Q6      -0.622500
      2 C7           1.0450     2.7090    -3.7780 ca         1 2Q6       0.031600
      3 O2          -0.1400    12.4290    -3.7990 os         1 2Q6      -0.330900
      4 C6          -0.1440     3.1970    -3.2520 ca         1 2Q6      -0.134500
      5 C1          -0.6160     8.8670    -4.8980 c3         1 2Q6      -0.081400
      6 N1           2.1860     0.0000     0.0000 n          1 2Q6      -0.428800
      7 C5          -0.6670     4.3870    -3.7200 ca         1 2Q6      -0.109000
      8 C4          -0.0080     5.0920    -4.7100 ca         1 2Q6      -0.082300
      9 C3          -0.5810     6.3900    -5.2170 c3         1 2Q6      -0.038100
     10 C2          -0.0340     7.5500    -4.3830 c3         1 2Q6      -0.075400
     11 O3          -3.8060    19.9580    -2.2780 o          1 2Q6      -0.606000
     12 C30         -3.7620    20.3110    -3.4400 c          1 2Q6       0.749100
     13 O4          -4.2990    21.4910    -3.8060 os         1 2Q6      -0.443900
     14 C31         -4.9130    22.2870    -2.7590 c3         1 2Q6       0.158700
     15 C29         -2.5940    18.2380    -3.9650 c3         1 2Q6       0.133000
     16 C28         -1.8840    17.6070    -5.1650 c3         1 2Q6       0.033600
     17 C32         -0.6800    18.4660    -5.5540 c3         1 2Q6      -0.190100
     18 C33         -0.0690    17.9270    -6.8230 ca         1 2Q6      -0.176600
     19 C37         -0.4870    18.3960    -8.0360 ca         1 2Q6      -0.110000
     20 C36          0.1110    17.8660    -9.1950 ca         1 2Q6      -0.150300
     21 C38         -0.2660    18.3000   -10.4750 ca         1 2Q6      -0.113000
     22 C39          0.3350    17.7630   -11.5720 ca         1 2Q6      -0.124000
     23 C40          1.3210    16.7870   -11.4410 ca         1 2Q6      -0.120000
     24 C41          1.7120    16.3430   -10.2140 ca         1 2Q6      -0.163300
     25 C35          1.1140    16.8740    -9.0580 ca         1 2Q6       0.416600
     26 N4           1.4760    16.4580    -7.8410 nb         1 2Q6      -0.682000
     27 C34          0.9260    16.9540    -6.7590 ca         1 2Q6       0.451200
     28 C27         -1.4170    16.2210    -4.8000 ca         1 2Q6      -0.129300
     29 C26         -0.5340    16.0450    -3.7510 ca         1 2Q6      -0.077000
     30 C25         -0.1040    14.7760    -3.4140 ca         1 2Q6      -0.188500
     31 C42         -1.8780    15.1280    -5.5100 ca         1 2Q6      -0.077000
     32 C43         -1.4510    13.8570    -5.1780 ca         1 2Q6      -0.188500
     33 C24         -0.5610    13.6780    -4.1290 ca         1 2Q6       0.147100
     34 C23         -0.6510    11.3450    -4.5780 c3         1 2Q6       0.138400
     35 C           -0.0690    10.0280    -4.0640 c3         1 2Q6      -0.082400
     36 C9           1.1770     4.6080    -5.2350 ca         1 2Q6      -0.109000
     37 C8           1.7050     3.4190    -4.7720 ca         1 2Q6      -0.134500
     38 C10          1.4970     1.2040    -1.9910 c          1 2Q6       0.647100
     39 O            0.8940     1.9370    -1.2370 o          1 2Q6      -0.593100
     40 C11          2.1530    -0.0460    -1.4640 c3         1 2Q6       0.044700
     41 C12          1.3570    -1.2710    -1.9170 c3         1 2Q6      -0.149700
     42 C17          1.4170    -1.3820    -3.4420 c3         1 2Q6      -0.167400
     43 C16          0.6210    -2.6070    -3.8960 c3         1 2Q6      -0.065900
     44 C15          1.2210    -3.8660    -3.2700 c3         1 2Q6      -0.090400
     45 C14          1.1610    -3.7560    -1.7450 c3         1 2Q6      -0.065900
     46 C13          1.9580    -2.5310    -1.2910 c3         1 2Q6      -0.167400
     47 C22          3.4880     0.0000     0.6550 c3         1 2Q6       0.094000
     48 C21          3.3680     0.5230     2.0870 c3         1 2Q6      -0.089400
     49 C20          2.2400    -0.2390     2.7950 c3         1 2Q6      -0.113400
     50 C19          0.9110     0.1510     2.1440 c3         1 2Q6       0.014500
     51 N2          -0.1470    -0.7500     2.6180 nz         1 2Q6      -0.854600
     52 C18          1.0230     0.0460     0.6500 c          1 2Q6       0.694500
     53 H1          -0.6610     2.6450    -2.4770 ha         1 2Q6       0.143000
     54 H2          -0.3360     9.0040    -5.9350 hc         1 2Q6       0.044700
     55 H3          -1.6960     8.8410    -4.8160 hc         1 2Q6       0.044700
     56 H4          -1.5950     4.7680    -3.3110 ha         1 2Q6       0.139500
     57 H5          -1.6610     6.3640    -5.1360 hc         1 2Q6       0.052700
     58 H6          -0.3000     6.5270    -6.2540 hc         1 2Q6       0.052700
     59 H7           1.0460     7.5760    -4.4640 hc         1 2Q6       0.046700
     60 H8          -0.3140     7.4130    -3.3450 hc         1 2Q6       0.046700
     61 H9          -5.3030    23.2040    -3.1850 h1         1 2Q6       0.050700
     62 H10         -4.1720    22.5270    -2.0060 h1         1 2Q6       0.050700
     63 H11         -5.7210    21.7270    -2.3050 h1         1 2Q6       0.050700
     64 H12         -3.1800    19.7930    -5.3260 hn         1 2Q6       0.317500
     65 H13         -3.3780    17.5760    -3.6200 h1         1 2Q6       0.067700
     66 H14         -1.8790    18.3980    -3.1670 h1         1 2Q6       0.067700
     67 H15         -2.5710    17.5480    -6.0000 hc         1 2Q6       0.033700
     68 H16         -0.6210    19.5210    -5.3160 hc         1 2Q6       0.098700
     69 H17         -1.5530    18.4200    -6.1940 hc         1 2Q6       0.098700
     70 H18         -1.0610    19.3130    -8.0930 ha         1 2Q6       0.137000
     71 H19         -1.0320    19.0580   -10.5900 ha         1 2Q6       0.133000
     72 H20          0.0430    18.0980   -12.5600 ha         1 2Q6       0.132000
     73 H21          1.7850    16.3750   -12.3290 ha         1 2Q6       0.134000
     74 H22          2.4800    15.5840   -10.1300 ha         1 2Q6       0.148000
     75 H23          1.2580    16.6010    -5.7900 h4         1 2Q6       0.036100
     76 H24         -0.1780    16.9030    -3.1930 ha         1 2Q6       0.138500
     77 H25          0.5880    14.6380    -2.5920 ha         1 2Q6       0.140500
     78 H26         -2.5730    15.2690    -6.3290 ha         1 2Q6       0.138500
     79 H27         -1.8120    13.0010    -5.7340 ha         1 2Q6       0.140500
     80 H28         -1.7310    11.3190    -4.4960 h1         1 2Q6       0.037200
     81 H29         -0.3710    11.4830    -5.6160 h1         1 2Q6       0.037200
     82 H30          1.0110    10.0530    -4.1470 hc         1 2Q6       0.056200
     83 H31         -0.3490     9.8900    -3.0270 hc         1 2Q6       0.056200
     84 H32          1.6910     5.1630    -6.0110 ha         1 2Q6       0.139500
     85 H33          2.6330     3.0410    -5.1830 ha         1 2Q6       0.143000
     86 H34          2.0600     0.8910    -3.9280 hn         1 2Q6       0.340500
     87 H35          3.1650    -0.1110    -1.8460 h1         1 2Q6       0.092700
     88 H36          0.3240    -1.1720    -1.6050 hc         1 2Q6       0.082700
     89 H37          2.4630    -1.1570    -3.2760 hc         1 2Q6       0.091700
     90 H38          0.5460    -1.0260    -2.9050 hc         1 2Q6       0.091700
     91 H39          0.6660    -2.6850    -4.9760 hc         1 2Q6       0.050700
     92 H40         -0.4100    -2.5040    -3.5800 hc         1 2Q6       0.050700
     93 H41          2.2530    -3.9660    -3.5830 hc         1 2Q6       0.054200
     94 H42          0.6550    -4.7320    -3.5900 hc         1 2Q6       0.054200
     95 H43          0.1300    -3.6500    -1.4310 hc         1 2Q6       0.050700
     96 H44          1.5890    -4.6470    -1.3020 hc         1 2Q6       0.050700
     97 H45          1.9140    -2.4520    -0.2120 hc         1 2Q6       0.091700
     98 H46          2.9880    -2.6340    -1.6090 hc         1 2Q6       0.091700
     99 H47          3.8760    -1.0110     0.6770 h1         1 2Q6       0.072200
    100 H48          4.1670     0.6360     0.1000 h1         1 2Q6       0.072200
    101 H49          3.1350     1.5810     2.0680 hc         1 2Q6       0.086200
    102 H50          4.3010     0.3590     2.6120 hc         1 2Q6       0.086200
    103 H51          2.2230     0.0290     3.8440 hc         1 2Q6       0.074200
    104 H52          2.3990    -1.3050     2.6870 hc         1 2Q6       0.074200
    105 H53          0.6670     1.1720     2.4130 hx         1 2Q6       0.141700
    106 H54         -0.7070    -1.1550     1.8940 hn         1 2Q6       0.485467
    107 H55         -0.4250     0.1710     2.8930 hn         1 2Q6       0.485467
    108 H231         0.1220    -1.3480     3.3750 hn         1 2Q6       0.485467
    109 N            1.5800     1.5070    -3.3020 ns         1 2Q6      -0.456100
    110 N3          -3.1780    19.5220    -4.3630 ns         1 2Q6      -0.583900
@<TRIPOS>BOND
     1    23    22 ar  
     2    23    24 ar  
     3    22    21 ar  
     4    24    25 ar  
     5    21    20 ar  
     6    25    20 ar  
     7    25    26 ar  
     8    20    19 ar  
     9    26    27 ar  
    10    19    18 ar  
    11    27    18 ar  
    12    11    12 2   
    13    18    17 1   
    14    15   110 1   
    15    15    16 1   
    16    12   110 1   
    17    12    13 1   
    18    16    17 1   
    19    16    28 1   
    20    13    14 1   
    21    29    28 ar  
    22    29    30 ar  
    23    28    31 ar  
    24    30    33 ar  
    25    31    32 ar  
    26     9    10 1   
    27     9     8 1   
    28    10     5 1   
    29     5    35 1   
    30    33    32 ar  
    31    33     3 1   
    32     7     8 ar  
    33     7     4 ar  
    34     8    36 ar  
    35     4     2 ar  
    36     3    34 1   
    37    35    34 1   
    38    36    37 ar  
    39     2    37 ar  
    40     2   109 1   
    41   109    38 1   
    42    43    42 1   
    43    43    44 1   
    44    42    41 1   
    45    44    45 1   
    46    38    39 2   
    47    38    40 1   
    48    40    41 1   
    49    40     6 1   
    50    41    46 1   
    51     1    52 2   
    52    46    45 1   
    53     6    52 1   
    54     6    47 1   
    55    52    50 1   
    56    47    48 1   
    57    50    51 1   
    58    50    49 1   
    59    48    49 1   
    60     4    53 1   
    61     5    54 1   
    62     5    55 1   
    63     7    56 1   
    64     9    57 1   
    65     9    58 1   
    66    10    59 1   
    67    10    60 1   
    68    14    61 1   
    69    14    62 1   
    70    14    63 1   
    71   110    64 1   
    72    15    65 1   
    73    15    66 1   
    74    16    67 1   
    75    17    68 1   
    76    17    69 1   
    77    19    70 1   
    78    21    71 1   
    79    22    72 1   
    80    23    73 1   
    81    24    74 1   
    82    27    75 1   
    83    29    76 1   
    84    30    77 1   
    85    31    78 1   
    86    32    79 1   
    87    34    80 1   
    88    34    81 1   
    89    35    82 1   
    90    35    83 1   
    91    36    84 1   
    92    37    85 1   
    93   109    86 1   
    94    40    87 1   
    95    41    88 1   
    96    42    89 1   
    97    42    90 1   
    98    43    91 1   
    99    43    92 1   
   100    44    93 1   
   101    44    94 1   
   102    45    95 1   
   103    45    96 1   
   104    46    97 1   
   105    46    98 1   
   106    47    99 1   
   107    47   100 1   
   108    48   101 1   
   109    48   102 1   
   110    49   103 1   
   111    49   104 1   
   112    50   105 1   
   113    51   106 1   
   114    51   107 1   
   115   108    51 1   
@<TRIPOS>SUBSTRUCTURE
     1 2Q6         1 TEMP              0 ****  ****    0 ROOT
