@<TRIPOS>MOLECULE
2Q6
  110   116     1     0     0
SMALL
bcc


@<TRIPOS>ATOM
      1 O1           0.0000     0.0000     0.0000 o          1 2Q6      -0.389000
      2 C7           1.0450     2.7090    -3.7780 ca         1 2Q6      -0.116000
      3 O2          -0.1400    12.4290    -3.7990 os         1 2Q6      -0.190000
      4 C6          -0.1440     3.1970    -3.2520 ca         1 2Q6      -0.104000
      5 C1          -0.6160     8.8670    -4.8980 c3         1 2Q6      -0.103000
      6 N1           2.1860     0.0000     0.0000 n          1 2Q6       0.101000
      7 C5          -0.6670     4.3870    -3.7200 ca         1 2Q6      -0.080000
      8 C4          -0.0080     5.0920    -4.7100 ca         1 2Q6      -0.074000
      9 C3          -0.5810     6.3900    -5.2170 c3         1 2Q6      -0.059000
     10 C2          -0.0340     7.5500    -4.3830 c3         1 2Q6      -0.103000
     11 O3          -3.8060    19.9580    -2.2780 o          1 2Q6      -0.463000
     12 C30         -3.7620    20.3110    -3.4400 c2         1 2Q6       0.335000
     13 O4          -4.2990    21.4910    -3.8060 os         1 2Q6      -0.268000
     14 C31         -4.9130    22.2870    -2.7590 c3         1 2Q6       0.098000
     15 C29         -2.5940    18.2380    -3.9650 c3         1 2Q6      -0.063000
     16 C28         -1.8840    17.6070    -5.1650 c3         1 2Q6       0.047000
     17 C32         -0.6800    18.4660    -5.5540 c3         1 2Q6      -0.244000
     18 C33         -0.0690    17.9270    -6.8230 c2         1 2Q6      -0.084000
     19 C37         -0.4870    18.3960    -8.0360 c2         1 2Q6      -0.094000
     20 C36          0.1110    17.8660    -9.1950 ca         1 2Q6      -0.075000
     21 C38         -0.2660    18.3000   -10.4750 ca         1 2Q6      -0.086000
     22 C39          0.3350    17.7630   -11.5720 ca         1 2Q6      -0.093000
     23 C40          1.3210    16.7870   -11.4410 ca         1 2Q6      -0.095000
     24 C41          1.7120    16.3430   -10.2140 ca         1 2Q6      -0.073000
     25 C35          1.1140    16.8740    -9.0580 ca         1 2Q6      -0.024000
     26 N4           1.4760    16.4580    -7.8410 n2         1 2Q6      -0.041000
     27 C34          0.9260    16.9540    -6.7590 c2         1 2Q6      -0.046000
     28 C27         -1.4170    16.2210    -4.8000 ca         1 2Q6      -0.141000
     29 C26         -0.5340    16.0450    -3.7510 ca         1 2Q6      -0.043500
     30 C25         -0.1040    14.7760    -3.4140 ca         1 2Q6      -0.176000
     31 C42         -1.8780    15.1280    -5.5100 ca         1 2Q6      -0.043500
     32 C43         -1.4510    13.8570    -5.1780 ca         1 2Q6      -0.176000
     33 C24         -0.5610    13.6780    -4.1290 ca         1 2Q6       0.111000
     34 C23         -0.6510    11.3450    -4.5780 c3         1 2Q6       0.051000
     35 C           -0.0690    10.0280    -4.0640 c3         1 2Q6      -0.114000
     36 C9           1.1770     4.6080    -5.2350 ca         1 2Q6      -0.080000
     37 C8           1.7050     3.4190    -4.7720 ca         1 2Q6      -0.104000
     38 C10          1.4970     1.2040    -1.9910 c2         1 2Q6       0.187000
     39 O            0.8940     1.9370    -1.2370 o          1 2Q6      -0.401000
     40 C11          2.1530    -0.0460    -1.4640 c3         1 2Q6      -0.073000
     41 C12          1.3570    -1.2710    -1.9170 DU         1 2Q6      -0.192000
     42 C17          1.4170    -1.3820    -3.4420 c3         1 2Q6      -0.317000
     43 C16          0.6210    -2.6070    -3.8960 c3         1 2Q6      -0.063000
     44 C15          1.2210    -3.8660    -3.2700 c3         1 2Q6      -0.115000
     45 C14          1.1610    -3.7560    -1.7450 c3         1 2Q6      -0.099000
     46 C13          1.9580    -2.5310    -1.2910 c3         1 2Q6      -0.114000
     47 C22          3.4880     0.0000     0.6550 c3         1 2Q6      -0.085000
     48 C21          3.3680     0.5230     2.0870 c3         1 2Q6      -0.102000
     49 C20          2.2400    -0.2390     2.7950 c3         1 2Q6      -0.121000
     50 C19          0.9110     0.1510     2.1440 c3         1 2Q6      -0.284000
     51 N2          -0.1470    -0.7500     2.6180 nz         1 2Q6       0.756000
     52 C18          1.0230     0.0460     0.6500 c2         1 2Q6       0.213000
     53 H1          -0.6610     2.6450    -2.4770 ha         1 2Q6       0.120000
     54 H2          -0.3360     9.0040    -5.9350 hc         1 2Q6       0.056000
     55 H3          -1.6960     8.8410    -4.8160 hc         1 2Q6       0.056000
     56 H4          -1.5950     4.7680    -3.3110 ha         1 2Q6       0.112500
     57 H5          -1.6610     6.3640    -5.1360 hc         1 2Q6       0.061500
     58 H6          -0.3000     6.5270    -6.2540 hc         1 2Q6       0.061500
     59 H7           1.0460     7.5760    -4.4640 hc         1 2Q6       0.057500
     60 H8          -0.3140     7.4130    -3.3450 hc         1 2Q6       0.057500
     61 H9          -5.3030    23.2040    -3.1850 h1         1 2Q6       0.040333
     62 H10         -4.1720    22.5270    -2.0060 h1         1 2Q6       0.040333
     63 H11         -5.7210    21.7270    -2.3050 h1         1 2Q6       0.040333
     64 H12         -3.1800    19.7930    -5.3260 hn         1 2Q6       0.086000
     65 H13         -3.3780    17.5760    -3.6200 h1         1 2Q6       0.079000
     66 H14         -1.8790    18.3980    -3.1670 h1         1 2Q6       0.079000
     67 H15         -2.5710    17.5480    -6.0000 hc         1 2Q6       0.050000
     68 H16         -0.6210    19.5210    -5.3160 hc         1 2Q6       0.112000
     69 H17         -1.5530    18.4200    -6.1940 hc         1 2Q6       0.112000
     70 H18         -1.0610    19.3130    -8.0930 ha         1 2Q6       0.113000
     71 H19         -1.0320    19.0580   -10.5900 ha         1 2Q6       0.107000
     72 H20          0.0430    18.0980   -12.5600 ha         1 2Q6       0.104000
     73 H21          1.7850    16.3750   -12.3290 ha         1 2Q6       0.104000
     74 H22          2.4800    15.5840   -10.1300 ha         1 2Q6       0.117000
     75 H23          1.2580    16.6010    -5.7900 h4         1 2Q6       0.131000
     76 H24         -0.1780    16.9030    -3.1930 ha         1 2Q6       0.110000
     77 H25          0.5880    14.6380    -2.5920 ha         1 2Q6       0.119000
     78 H26         -2.5730    15.2690    -6.3290 ha         1 2Q6       0.110000
     79 H27         -1.8120    13.0010    -5.7340 ha         1 2Q6       0.119000
     80 H28         -1.7310    11.3190    -4.4960 h1         1 2Q6       0.043000
     81 H29         -0.3710    11.4830    -5.6160 h1         1 2Q6       0.043000
     82 H30          1.0110    10.0530    -4.1470 hc         1 2Q6       0.064000
     83 H31         -0.3490     9.8900    -3.0270 hc         1 2Q6       0.064000
     84 H32          1.6910     5.1630    -6.0110 ha         1 2Q6       0.112500
     85 H33          2.6330     3.0410    -5.1830 ha         1 2Q6       0.120000
     86 H34          2.0600     0.8910    -3.9280 hn         1 2Q6       0.101000
     87 H35          3.1650    -0.1110    -1.8460 h1         1 2Q6       0.102000
     88 H36          0.3240    -1.1720    -1.6050 ha         1 2Q6       0.117000
     89 H37          2.4630    -1.1570    -3.2760 hc         1 2Q6       0.152000
     90 H38          0.5460    -1.0260    -2.9050 DU         1 2Q6       0.206000
     91 H39          0.6660    -2.6850    -4.9760 hc         1 2Q6       0.065500
     92 H40         -0.4100    -2.5040    -3.5800 hc         1 2Q6       0.065500
     93 H41          2.2530    -3.9660    -3.5830 hc         1 2Q6       0.065000
     94 H42          0.6550    -4.7320    -3.5900 hc         1 2Q6       0.065000
     95 H43          0.1300    -3.6500    -1.4310 hc         1 2Q6       0.055000
     96 H44          1.5890    -4.6470    -1.3020 hc         1 2Q6       0.055000
     97 H45          1.9140    -2.4520    -0.2120 hc         1 2Q6       0.045000
     98 H46          2.9880    -2.6340    -1.6090 hc         1 2Q6       0.045000
     99 H47          3.8760    -1.0110     0.6770 h1         1 2Q6       0.081500
    100 H48          4.1670     0.6360     0.1000 h1         1 2Q6       0.081500
    101 H49          3.1350     1.5810     2.0680 hc         1 2Q6       0.090500
    102 H50          4.3010     0.3590     2.6120 hc         1 2Q6       0.090500
    103 H51          2.2230     0.0290     3.8440 hc         1 2Q6       0.079500
    104 H52          2.3990    -1.3050     2.6870 hc         1 2Q6       0.079500
    105 H53          0.6670     1.1720     2.4130 hx         1 2Q6       0.157000
    106 H54         -0.7070    -1.1550     1.8940 hn         1 2Q6       0.057333
    107 H55         -0.4250     0.1710     2.8930 hn         1 2Q6       0.057333
    108 H231         0.1220    -1.3480     3.3750 hn         1 2Q6       0.057333
    109 N            1.5800     1.5070    -3.3020 ns         1 2Q6       0.144000
    110 N3          -3.1780    19.5220    -4.3630 ns         1 2Q6       0.001000
@<TRIPOS>BOND
     1     1    52 1   
     2     2     4 1   
     3     2    37 1   
     4     2   109 1   
     5     3    33 1   
     6     3    34 1   
     7     4     7 1   
     8     4    53 1   
     9     5    10 1   
    10     5    35 1   
    11     5    54 1   
    12     5    55 1   
    13     6    40 1   
    14     6    47 1   
    15     6    52 1   
    16     7     8 1   
    17     7    56 1   
    18     8     9 1   
    19     8    36 1   
    20     9    10 1   
    21     9    57 1   
    22     9    58 1   
    23    10    59 1   
    24    10    60 1   
    25    11    12 1   
    26    12    13 1   
    27    12   110 1   
    28    13    14 1   
    29    14    61 1   
    30    14    62 1   
    31    14    63 1   
    32    15    16 1   
    33    15    65 1   
    34    15    66 1   
    35    15   110 1   
    36    16    17 1   
    37    16    28 1   
    38    16    67 1   
    39    17    18 1   
    40    17    68 1   
    41    17    69 1   
    42    18    19 1   
    43    18    27 1   
    44    19    20 1   
    45    19    70 1   
    46    20    21 1   
    47    20    25 1   
    48    21    22 1   
    49    21    71 1   
    50    22    23 1   
    51    22    72 1   
    52    23    24 1   
    53    23    73 1   
    54    24    25 1   
    55    24    74 1   
    56    25    26 1   
    57    26    27 1   
    58    27    75 1   
    59    28    29 1   
    60    28    31 1   
    61    29    30 1   
    62    29    76 1   
    63    30    33 1   
    64    30    77 1   
    65    31    32 1   
    66    31    78 1   
    67    32    33 1   
    68    32    79 1   
    69    34    35 1   
    70    34    80 1   
    71    34    81 1   
    72    35    82 1   
    73    35    83 1   
    74    36    37 1   
    75    36    84 1   
    76    37    85 1   
    77    38    39 1   
    78    38    40 1   
    79    38   109 1   
    80    40    41 1   
    81    40    87 1   
    82    41    42 1   
    83    41    46 1   
    84    41    88 1   
    85    41    90 1   
    86    42    43 1   
    87    42    89 1   
    88    42    90 1   
    89    43    44 1   
    90    43    91 1   
    91    43    92 1   
    92    44    45 1   
    93    44    93 1   
    94    44    94 1   
    95    45    46 1   
    96    45    95 1   
    97    45    96 1   
    98    46    97 1   
    99    46    98 1   
   100    47    48 1   
   101    47    99 1   
   102    47   100 1   
   103    48    49 1   
   104    48   101 1   
   105    48   102 1   
   106    49    50 1   
   107    49   103 1   
   108    49   104 1   
   109    50    51 1   
   110    50    52 1   
   111    50   105 1   
   112    51   106 1   
   113    51   107 1   
   114    51   108 1   
   115    64   110 1   
   116    86   109 1   
@<TRIPOS>SUBSTRUCTURE
     1 2Q6         1 TEMP              0 ****  ****    0 ROOT
