@<TRIPOS>MOLECULE
molecule
   52    55     1     0     0
SMALL
bcc


@<TRIPOS>ATOM
      1 O1           0.0000     0.0000     0.0000 o          1 2Q8      -0.509100
      2 C18          1.2130     0.0000     0.0000 c          1 2Q8       0.608700
      3 C19          2.0290     0.0000     1.2850 c3         1 2Q8      -0.164400
      4 C1           3.1910     0.9840     1.1200 c3         1 2Q8      -0.057000
      5 C20          3.9500     1.0940     2.4430 c3         1 2Q8      -0.088600
      6 C            2.6370     2.3600     0.7420 c3         1 2Q8      -0.088600
      7 C4           2.0000    -0.0070    -1.2380 cc         1 2Q8      -0.224600
      8 C5           1.6240    -0.2290    -2.6150 cc         1 2Q8      -0.046300
      9 C16          0.2740    -0.5240    -3.2150 c3         1 2Q8      -0.003100
     10 C15          0.3650    -0.2800    -4.7280 c3         1 2Q8       0.157800
     11 N2           1.5520    -0.9630    -5.2630 n3         1 2Q8      -0.720600
     12 C17          1.4810    -1.0700    -6.7270 c3         1 2Q8       0.153100
     13 C14          2.7940    -0.2930    -4.8430 c3         1 2Q8       0.247100
     14 C6           2.7600    -0.1230    -3.3440 cd         1 2Q8      -0.147600
     15 N            3.8030     0.1520    -2.5060 na         1 2Q8       0.015800
     16 C3           3.3720     0.2260    -1.2360 cd         1 2Q8      -0.073600
     17 C2           4.1510     0.5080     0.0250 c3         1 2Q8      -0.001100
     18 C7           5.1290     0.3290    -2.9110 ca         1 2Q8       0.092800
     19 C12          6.1030    -0.5770    -2.5090 ca         1 2Q8      -0.123000
     20 C11          7.4110    -0.4060    -2.9060 ca         1 2Q8      -0.058000
     21 C10          7.7570     0.6790    -3.7160 ca         1 2Q8      -0.226600
     22 C13          9.1580     0.8650    -4.1440 c          1 2Q8       0.508700
     23 N1           9.4900     1.9130    -4.9250 nz         1 2Q8      -0.679400
     24 O           10.0120     0.0740    -3.7940 o          1 2Q8      -0.417100
     25 C9           6.7740     1.5860    -4.1190 ca         1 2Q8      -0.058000
     26 C8           5.4690     1.4070    -3.7210 ca         1 2Q8      -0.123000
     27 H1           1.4030     0.3120     2.1130 hc         1 2Q8       0.077700
     28 H2           2.4170    -0.9940     1.4690 hc         1 2Q8       0.077700
     29 H3           4.3110     0.1150     2.7340 hc         1 2Q8       0.043533
     30 H4           3.2870     1.4770     3.2090 hc         1 2Q8       0.043533
     31 H5           4.7900     1.7680     2.3220 hc         1 2Q8       0.043533
     32 H6           3.4490     3.0740     0.6890 hc         1 2Q8       0.043533
     33 H7           1.9220     2.6790     1.4900 hc         1 2Q8       0.043533
     34 H8           2.1460     2.2990    -0.2230 hc         1 2Q8       0.043533
     35 H9          -0.4690     0.1350    -2.7830 hc         1 2Q8       0.078200
     36 H10          0.0090    -1.5570    -3.0270 hc         1 2Q8       0.078200
     37 H11         -0.5230    -0.6710    -5.2100 h1         1 2Q8       0.044200
     38 H12          0.4460     0.7840    -4.9180 h1         1 2Q8       0.044200
     39 H14          2.3730    -1.5620    -7.0970 h1         1 2Q8       0.037033
     40 H15          1.4100    -0.0790    -7.1590 h1         1 2Q8       0.037033
     41 H16          0.6090    -1.6480    -7.0050 h1         1 2Q8       0.037033
     42 H17          3.6460    -0.9000    -5.1200 h1         1 2Q8       0.033700
     43 H18          2.8610     0.6790    -5.3170 h1         1 2Q8       0.033700
     44 H19          4.8850     1.2810    -0.1700 hc         1 2Q8       0.051700
     45 H20          4.6490    -0.3970     0.3510 hc         1 2Q8       0.051700
     46 H21          5.8340    -1.4180    -1.8810 ha         1 2Q8       0.180000
     47 H22          8.1700    -1.1130    -2.5920 ha         1 2Q8       0.145000
     48 H23          8.9790     1.8630    -5.7840 hn         1 2Q8       0.478133
     49 H24         10.4710     1.8880    -5.1180 hn         1 2Q8       0.478133
     50 H25          7.0390     2.4280    -4.7480 ha         1 2Q8       0.145000
     51 H26          4.7060     2.1100    -4.0330 ha         1 2Q8       0.180000
     52 H13          9.2640     2.7660    -4.4520 hn         1 2Q8       0.478133
@<TRIPOS>BOND
     1     6     4 1
     2    24    22 2
     3     5     4 1
     4     4    17 1
     5     4     3 1
     6    20    19 ar
     7    20    21 ar
     8    19    18 ar
     9    22    21 1
    10    22    23 1
    11    17    16 1
    12    21    25 ar
    13     3     2 1
    14    18    15 1
    15    18    26 ar
    16    16    15 1
    17    16     7 2
    18     2     1 2
    19     2     7 1
    20    15    14 1
    21     7     8 1
    22    25    26 ar
    23    14     8 2
    24    14    13 1
    25     8     9 1
    26    13    11 1
    27    10     9 1
    28    10    11 1
    29    11    12 1
    30     3    27 1
    31     3    28 1
    32     5    29 1
    33     5    30 1
    34     5    31 1
    35     6    32 1
    36     6    33 1
    37     6    34 1
    38     9    35 1
    39     9    36 1
    40    10    37 1
    41    10    38 1
    42    12    39 1
    43    12    40 1
    44    12    41 1
    45    13    42 1
    46    13    43 1
    47    17    44 1
    48    17    45 1
    49    19    46 1
    50    20    47 1
    51    23    48 1
    52    23    49 1
    53    25    50 1
    54    26    51 1
    55    52    23 1
@<TRIPOS>SUBSTRUCTURE
     1 2Q8         1 TEMP              0 ****  ****    0 ROOT
