@<TRIPOS>MOLECULE
2Q8
   52    55     1     0     0
SMALL
bcc


@<TRIPOS>ATOM
      1 O1           0.0000     0.0000     0.0000 o          1 2Q8      -0.544100
      2 C18          1.2130     0.0000     0.0000 c          1 2Q8       0.663700
      3 C19          2.0290     0.0000     1.2850 c3         1 2Q8      -0.110400
      4 C1           3.1910     0.9840     1.1200 c3         1 2Q8      -0.058000
      5 C20          3.9500     1.0940     2.4430 c3         1 2Q8      -0.001600
      6 C            2.6370     2.3600     0.7420 c3         1 2Q8      -0.001600
      7 C4           2.0000    -0.0070    -1.2380 cc         1 2Q8      -0.227600
      8 C5           1.6240    -0.2290    -2.6150 cc         1 2Q8      -0.028300
      9 C16          0.2740    -0.5240    -3.2150 c3         1 2Q8       0.064900
     10 C15          0.3650    -0.2800    -4.7280 c3         1 2Q8       0.150800
     11 N2           1.5520    -0.9630    -5.2630 n3         1 2Q8      -0.534600
     12 C17          1.4810    -1.0700    -6.7270 c3         1 2Q8       0.187100
     13 C14          2.7940    -0.2930    -4.8430 c3         1 2Q8       0.272100
     14 C6           2.7600    -0.1230    -3.3440 cd         1 2Q8      -0.365600
     15 N            3.8030     0.1520    -2.5060 na         1 2Q8       0.561800
     16 C3           3.3720     0.2260    -1.2360 cd         1 2Q8      -0.287600
     17 C2           4.1510     0.5080     0.0250 c3         1 2Q8       0.083900
     18 C7           5.1290     0.3290    -2.9110 ca         1 2Q8      -0.082200
     19 C12          6.1030    -0.5770    -2.5090 ca         1 2Q8      -0.082000
     20 C11          7.4110    -0.4060    -2.9060 ca         1 2Q8      -0.021500
     21 C10          7.7570     0.6790    -3.7160 ca         1 2Q8      -0.242600
     22 C13          9.1580     0.8650    -4.1440 c          1 2Q8       0.357700
     23 N1           9.4900     1.9130    -4.9250 nz         1 2Q8       0.200600
     24 O           10.0120     0.0740    -3.7940 o          1 2Q8      -0.425100
     25 C9           6.7740     1.5860    -4.1190 ca         1 2Q8      -0.021500
     26 C8           5.4690     1.4070    -3.7210 ca         1 2Q8      -0.082000
     27 H1           1.4030     0.3120     2.1130 hc         1 2Q8       0.045200
     28 H2           2.4170    -0.9940     1.4690 hc         1 2Q8       0.045200
     29 H3           4.3110     0.1150     2.7340 hc         1 2Q8       0.012033
     30 H4           3.2870     1.4770     3.2090 hc         1 2Q8       0.012033
     31 H5           4.7900     1.7680     2.3220 hc         1 2Q8       0.012033
     32 H6           3.4490     3.0740     0.6890 hc         1 2Q8       0.012033
     33 H7           1.9220     2.6790     1.4900 hc         1 2Q8       0.012033
     34 H8           2.1460     2.2990    -0.2230 hc         1 2Q8       0.012033
     35 H9          -0.4690     0.1350    -2.7830 hc         1 2Q8       0.041700
     36 H10          0.0090    -1.5570    -3.0270 hc         1 2Q8       0.041700
     37 H11         -0.5230    -0.6710    -5.2100 h1         1 2Q8       0.015200
     38 H12          0.4460     0.7840    -4.9180 h1         1 2Q8       0.015200
     39 H14          2.3730    -1.5620    -7.0970 h1         1 2Q8       0.003033
     40 H15          1.4100    -0.0790    -7.1590 h1         1 2Q8       0.003033
     41 H16          0.6090    -1.6480    -7.0050 h1         1 2Q8       0.003033
     42 H17          3.6460    -0.9000    -5.1200 h1         1 2Q8      -0.000300
     43 H18          2.8610     0.6790    -5.3170 h1         1 2Q8      -0.000300
     44 H19          4.8850     1.2810    -0.1700 hc         1 2Q8       0.016700
     45 H20          4.6490    -0.3970     0.3510 hc         1 2Q8       0.016700
     46 H21          5.8340    -1.4180    -1.8810 ha         1 2Q8       0.144500
     47 H22          8.1700    -1.1130    -2.5920 ha         1 2Q8       0.111500
     48 H23          8.9790     1.8630    -5.7840 hn         1 2Q8       0.247467
     49 H24         10.4710     1.8880    -5.1180 hn         1 2Q8       0.247467
     50 H25          7.0390     2.4280    -4.7480 ha         1 2Q8       0.111500
     51 H26          4.7060     2.1100    -4.0330 ha         1 2Q8       0.144500
     52 H13          9.2640     2.7660    -4.4520 hn         1 2Q8       0.247467
@<TRIPOS>BOND
     1     1     2 2   
     2     2     3 1   
     3     2     7 1   
     4     3     4 1   
     5     3    27 1   
     6     3    28 1   
     7     4     5 1   
     8     4     6 1   
     9     4    17 1   
    10     5    29 1   
    11     5    30 1   
    12     5    31 1   
    13     6    32 1   
    14     6    33 1   
    15     6    34 1   
    16     7     8 1   
    17     7    16 2   
    18     8     9 1   
    19     8    14 2   
    20     9    10 1   
    21     9    35 1   
    22     9    36 1   
    23    10    11 1   
    24    10    37 1   
    25    10    38 1   
    26    11    12 1   
    27    11    13 1   
    28    12    39 1   
    29    12    40 1   
    30    12    41 1   
    31    13    14 1   
    32    13    42 1   
    33    13    43 1   
    34    14    15 1   
    35    15    16 1   
    36    15    18 1   
    37    16    17 1   
    38    17    44 1   
    39    17    45 1   
    40    18    19 ar  
    41    18    26 ar  
    42    19    20 ar  
    43    19    46 1   
    44    20    21 ar  
    45    20    47 1   
    46    21    22 1   
    47    21    25 ar  
    48    22    23 1   
    49    22    24 2   
    50    23    48 1   
    51    23    49 1   
    52    23    52 1   
    53    25    26 ar  
    54    25    50 1   
    55    26    51 1   
@<TRIPOS>SUBSTRUCTURE
     1 2Q8         1 TEMP              0 ****  ****    0 ROOT
