@<TRIPOS>MOLECULE
2Q9
   66    70     1     0     0
SMALL
bcc


@<TRIPOS>ATOM
      1 N            0.0000     0.0000     0.0000 nu         1 2Q9      -0.406600
      2 C           -0.3080     1.6110     1.8130 c3         1 2Q9      -0.012100
      3 C20          6.6860     1.4960     3.5500 c          1 2Q9       0.676700
      4 C21          6.1430     2.9170     3.5650 c3         1 2Q9      -0.113400
      5 C22          4.6260     2.8570     3.3660 c3         1 2Q9      -0.057000
      6 C25          4.0430     4.2650     3.5030 c3         1 2Q9      -0.003600
      7 C24          4.0130     1.9520     4.4360 c3         1 2Q9      -0.003600
      8 C23          4.2840     2.3030     1.9800 c3         1 2Q9       0.079900
      9 C12          4.9990     0.9920     1.7780 cc         1 2Q9      -0.283600
     10 C13          6.1240     0.6240     2.5130 cd         1 2Q9      -0.268600
     11 C14          6.5200    -0.6790     2.0350 cd         1 2Q9      -0.053300
     12 C18          7.6560    -1.5670     2.4710 c3         1 2Q9       0.069900
     13 C17          7.3900    -2.9780     1.9260 c3         1 2Q9       0.150800
     14 N3           7.0510    -2.8970     0.4980 n3         1 2Q9      -0.539600
     15 C19          7.1520    -4.2150    -0.1420 c3         1 2Q9       0.187100
     16 C16          5.7160    -2.3110     0.2940 c3         1 2Q9       0.268100
     17 C15          5.6440    -1.0110     1.0580 cc         1 2Q9      -0.363600
     18 N2           4.7300    -0.0020     0.9180 na         1 2Q9       0.623800
     19 C5           3.6750     0.0000     0.0000 ca         1 2Q9      -0.125200
     20 C4           2.3650     0.0000     0.4560 ca         1 2Q9      -0.211000
     21 C6           3.9460     0.0080    -1.3670 ca         1 2Q9      -0.173000
     22 C7           2.9150     0.0100    -2.2740 ca         1 2Q9       0.002700
     23 C11          3.1880     0.0200    -3.7550 c3         1 2Q9       0.013900
     24 C10          2.1140    -0.7810    -4.4870 c3         1 2Q9       0.050000
     25 N1           0.7770    -0.3470    -4.0920 ns         1 2Q9      -0.181900
     26 C9           0.5030     0.0040    -2.8200 c          1 2Q9       0.663100
     27 O           -0.6280     0.3170    -2.4970 o          1 2Q9      -0.712500
     28 C8           1.5890     0.0030    -1.8260 ca         1 2Q9      -0.247600
     29 C3           1.3140     0.0020    -0.4510 ca         1 2Q9       0.146600
     30 C1          -0.2840     0.1310     1.4310 c3         1 2Q9       0.121500
     31 C2          -1.6440    -0.4980     1.7400 c3         1 2Q9      -0.012100
     32 H1          -0.7510    -0.1250    -0.6490 hn         1 2Q9       0.350800
     33 H2          -1.2840     2.0250     1.5920 hc         1 2Q9       0.012367
     34 H3           0.4470     2.1430     1.2470 hc         1 2Q9       0.012367
     35 H4          -0.1040     1.7140     2.8720 hc         1 2Q9       0.012367
     36 H5           6.3670     3.3820     4.5180 hc         1 2Q9       0.038700
     37 H6           6.5930     3.4870     2.7610 hc         1 2Q9       0.038700
     38 H7           4.2870     4.6640     4.4810 hc         1 2Q9       0.009533
     39 H8           4.4620     4.9060     2.7370 hc         1 2Q9       0.009533
     40 H9           2.9660     4.2230     3.3890 hc         1 2Q9       0.009533
     41 H10          4.2320     0.9170     4.2030 hc         1 2Q9       0.009533
     42 H11          4.4320     2.2010     5.4040 hc         1 2Q9       0.009533
     43 H12          2.9390     2.0970     4.4600 hc         1 2Q9       0.009533
     44 H13          3.2140     2.1440     1.9090 hc         1 2Q9       0.024200
     45 H14          4.6010     3.0080     1.2210 hc         1 2Q9       0.024200
     46 H15          8.5890    -1.1910     2.0690 hc         1 2Q9       0.032200
     47 H16          7.7020    -1.5960     3.5530 hc         1 2Q9       0.032200
     48 H17          8.2780    -3.5860     2.0510 h1         1 2Q9       0.009200
     49 H18          6.5630    -3.4220     2.4670 h1         1 2Q9       0.009200
     50 H20          6.4410    -4.8940     0.3140 h1         1 2Q9      -0.000967
     51 H21          8.1550    -4.6040    -0.0130 h1         1 2Q9      -0.000967
     52 H22          6.9340    -4.1210    -1.1990 h1         1 2Q9      -0.000967
     53 H23          4.9600    -2.9920     0.6630 h1         1 2Q9       0.008700
     54 H24          5.5610    -2.1210    -0.7620 h1         1 2Q9       0.008700
     55 H25          2.1620    -0.0560     1.5190 ha         1 2Q9       0.137000
     56 H26          4.9720     0.0450    -1.7140 ha         1 2Q9       0.128000
     57 H27          3.1800     1.0420    -4.1140 hc         1 2Q9       0.033700
     58 H28          4.1580    -0.4250    -3.9430 hc         1 2Q9       0.033700
     59 H29          2.2300    -1.8310    -4.2480 h1         1 2Q9       0.018200
     60 H30          2.2320    -0.6390    -5.5550 h1         1 2Q9       0.018200
     61 H31          0.0500    -0.3090    -4.7790 hn         1 2Q9       0.184500
     62 H32          0.4860    -0.3760     2.0000 h1         1 2Q9       0.033700
     63 H33         -2.4150     0.0150     1.1800 hc         1 2Q9       0.012367
     64 H34         -1.8490    -0.4110     2.8010 hc         1 2Q9       0.012367
     65 H35         -1.6300    -1.5450     1.4600 hc         1 2Q9       0.012367
     66 O1           7.5280     1.1140     4.3370 o          1 2Q9      -0.577100
@<TRIPOS>BOND
     1     1    29 1   
     2     1    30 1   
     3     1    32 1   
     4     2    30 1   
     5     2    33 1   
     6     2    34 1   
     7     2    35 1   
     8     3     4 1   
     9     3    10 1   
    10     3    66 2   
    11     4     5 1   
    12     4    36 1   
    13     4    37 1   
    14     5     6 1   
    15     5     7 1   
    16     5     8 1   
    17     6    38 1   
    18     6    39 1   
    19     6    40 1   
    20     7    41 1   
    21     7    42 1   
    22     7    43 1   
    23     8     9 1   
    24     8    44 1   
    25     8    45 1   
    26     9    10 2   
    27     9    18 1   
    28    10    11 1   
    29    11    12 1   
    30    11    17 2   
    31    12    13 1   
    32    12    46 1   
    33    12    47 1   
    34    13    14 1   
    35    13    48 1   
    36    13    49 1   
    37    14    15 1   
    38    14    16 1   
    39    15    50 1   
    40    15    51 1   
    41    15    52 1   
    42    16    17 1   
    43    16    53 1   
    44    16    54 1   
    45    17    18 1   
    46    18    19 1   
    47    19    20 ar  
    48    19    21 ar  
    49    20    29 ar  
    50    20    55 1   
    51    21    22 ar  
    52    21    56 1   
    53    22    23 1   
    54    22    28 ar  
    55    23    24 1   
    56    23    57 1   
    57    23    58 1   
    58    24    25 1   
    59    24    59 1   
    60    24    60 1   
    61    25    26 1   
    62    25    61 1   
    63    26    27 2   
    64    26    28 1   
    65    28    29 ar  
    66    30    31 1   
    67    30    62 1   
    68    31    63 1   
    69    31    64 1   
    70    31    65 1   
@<TRIPOS>SUBSTRUCTURE
     1 2Q9         1 TEMP              0 ****  ****    0 ROOT
