@<TRIPOS>MOLECULE
molecule
   66    70     1     0     0
SMALL
bcc


@<TRIPOS>ATOM
      1 N            0.0000     0.0000     0.0000 nu         1 2Q9      -0.796600
      2 C           -0.3080     1.6110     1.8130 c3         1 2Q9      -0.107600
      3 C20          6.6860     1.4960     3.5500 c          1 2Q9       0.615700
      4 C21          6.1430     2.9170     3.5650 c3         1 2Q9      -0.166400
      5 C22          4.6260     2.8570     3.3660 c3         1 2Q9      -0.056000
      6 C25          4.0430     4.2650     3.5030 c3         1 2Q9      -0.088600
      7 C24          4.0130     1.9520     4.4360 c3         1 2Q9      -0.088600
      8 C23          4.2840     2.3030     1.9800 c3         1 2Q9      -0.000100
      9 C12          4.9990     0.9920     1.7780 cc         1 2Q9      -0.058600
     10 C13          6.1240     0.6240     2.5130 cd         1 2Q9      -0.259600
     11 C14          6.5200    -0.6790     2.0350 cd         1 2Q9      -0.071300
     12 C18          7.6560    -1.5670     2.4710 c3         1 2Q9       0.001900
     13 C17          7.3900    -2.9780     1.9260 c3         1 2Q9       0.158800
     14 N3           7.0510    -2.8970     0.4980 n3         1 2Q9      -0.726600
     15 C19          7.1520    -4.2150    -0.1420 c3         1 2Q9       0.155100
     16 C16          5.7160    -2.3110     0.2940 c3         1 2Q9       0.247100
     17 C15          5.6440    -1.0110     1.0580 cc         1 2Q9      -0.134600
     18 N2           4.7300    -0.0020     0.9180 na         1 2Q9       0.048800
     19 C5           3.6750     0.0000     0.0000 ca         1 2Q9       0.057800
     20 C4           2.3650     0.0000     0.4560 ca         1 2Q9      -0.233000
     21 C6           3.9460     0.0080    -1.3670 ca         1 2Q9      -0.203000
     22 C7           2.9150     0.0100    -2.2740 ca         1 2Q9       0.004700
     23 C11          3.1880     0.0200    -3.7550 c3         1 2Q9      -0.057100
     24 C10          2.1140    -0.7810    -4.4870 c3         1 2Q9       0.109000
     25 N1           0.7770    -0.3470    -4.0920 ns         1 2Q9      -0.578900
     26 C9           0.5030     0.0040    -2.8200 c          1 2Q9       0.737100
     27 O           -0.6280     0.3170    -2.4970 o          1 2Q9      -0.671500
     28 C8           1.5890     0.0030    -1.8260 ca         1 2Q9      -0.242600
     29 C3           1.3140     0.0020    -0.4510 ca         1 2Q9       0.275600
     30 C1          -0.2840     0.1310     1.4310 c3         1 2Q9       0.226500
     31 C2          -1.6440    -0.4980     1.7400 c3         1 2Q9      -0.107600
     32 H1          -0.7510    -0.1250    -0.6490 hn         1 2Q9       0.480800
     33 H2          -1.2840     2.0250     1.5920 hc         1 2Q9       0.044200
     34 H3           0.4470     2.1430     1.2470 hc         1 2Q9       0.044200
     35 H4          -0.1040     1.7140     2.8720 hc         1 2Q9       0.044200
     36 H5           6.3670     3.3820     4.5180 hc         1 2Q9       0.069200
     37 H6           6.5930     3.4870     2.7610 hc         1 2Q9       0.069200
     38 H7           4.2870     4.6640     4.4810 hc         1 2Q9       0.040033
     39 H8           4.4620     4.9060     2.7370 hc         1 2Q9       0.040033
     40 H9           2.9660     4.2230     3.3890 hc         1 2Q9       0.040033
     41 H10          4.2320     0.9170     4.2030 hc         1 2Q9       0.040033
     42 H11          4.4320     2.2010     5.4040 hc         1 2Q9       0.040033
     43 H12          2.9390     2.0970     4.4600 hc         1 2Q9       0.040033
     44 H13          3.2140     2.1440     1.9090 hc         1 2Q9       0.059200
     45 H14          4.6010     3.0080     1.2210 hc         1 2Q9       0.059200
     46 H15          8.5890    -1.1910     2.0690 hc         1 2Q9       0.066700
     47 H16          7.7020    -1.5960     3.5530 hc         1 2Q9       0.066700
     48 H17          8.2780    -3.5860     2.0510 h1         1 2Q9       0.036200
     49 H18          6.5630    -3.4220     2.4670 h1         1 2Q9       0.036200
     50 H20          6.4410    -4.8940     0.3140 h1         1 2Q9       0.032367
     51 H21          8.1550    -4.6040    -0.0130 h1         1 2Q9       0.032367
     52 H22          6.9340    -4.1210    -1.1990 h1         1 2Q9       0.032367
     53 H23          4.9600    -2.9920     0.6630 h1         1 2Q9       0.043200
     54 H24          5.5610    -2.1210    -0.7620 h1         1 2Q9       0.043200
     55 H25          2.1620    -0.0560     1.5190 ha         1 2Q9       0.153000
     56 H26          4.9720     0.0450    -1.7140 ha         1 2Q9       0.149000
     57 H27          3.1800     1.0420    -4.1140 hc         1 2Q9       0.067700
     58 H28          4.1580    -0.4250    -3.9430 hc         1 2Q9       0.067700
     59 H29          2.2300    -1.8310    -4.2480 h1         1 2Q9       0.048200
     60 H30          2.2320    -0.6390    -5.5550 h1         1 2Q9       0.048200
     61 H31          0.0500    -0.3090    -4.7790 hn         1 2Q9       0.329500
     62 H32          0.4860    -0.3760     2.0000 h1         1 2Q9       0.053700
     63 H33         -2.4150     0.0150     1.1800 hc         1 2Q9       0.044200
     64 H34         -1.8490    -0.4110     2.8010 hc         1 2Q9       0.044200
     65 H35         -1.6300    -1.5450     1.4600 hc         1 2Q9       0.044200
     66 O1           7.5280     1.1140     4.3370 o          1 2Q9      -0.539100
@<TRIPOS>BOND
     1     2    30 1
     2    30    31 1
     3    30     1 1
     4     7     5 1
     5     1    29 1
     6    27    26 2
     7    29    20 ar
     8    29    28 ar
     9     6     5 1
    10     5     8 1
    11     5     4 1
    12    26    28 1
    13    26    25 1
    14    20    19 ar
    15    28    22 ar
    16     8     9 1
    17    25    24 1
    18     4     3 1
    19    19    18 1
    20    19    21 ar
    21     9    18 1
    22     9    10 2
    23     3    66 2
    24     3    10 1
    25    22    21 ar
    26    22    23 1
    27    18    17 1
    28    10    11 1
    29    17    11 2
    30    17    16 1
    31    11    12 1
    32    23    24 1
    33    16    14 1
    34    12    13 1
    35    13    14 1
    36    14    15 1
    37     1    32 1
    38     2    33 1
    39     2    34 1
    40     2    35 1
    41     4    36 1
    42     4    37 1
    43     6    38 1
    44     6    39 1
    45     6    40 1
    46     7    41 1
    47     7    42 1
    48     7    43 1
    49     8    44 1
    50     8    45 1
    51    12    46 1
    52    12    47 1
    53    13    48 1
    54    13    49 1
    55    15    50 1
    56    15    51 1
    57    15    52 1
    58    16    53 1
    59    16    54 1
    60    20    55 1
    61    21    56 1
    62    23    57 1
    63    23    58 1
    64    24    59 1
    65    24    60 1
    66    25    61 1
    67    30    62 1
    68    31    63 1
    69    31    64 1
    70    31    65 1
@<TRIPOS>SUBSTRUCTURE
     1 2Q9         1 TEMP              0 ****  ****    0 ROOT
