@<TRIPOS>MOLECULE
molecule
   59    63     1     0     0
SMALL
bcc


@<TRIPOS>ATOM
      1 C1           0.0000     0.0000     0.0000 cc         1 2QA      -0.085300
      2 C2           1.3480     0.0000     0.0000 cd         1 2QA      -0.171300
      3 C3           0.7680     0.0090     2.1490 cc         1 2QA      -0.059600
      4 C4          -0.4000     0.0050     1.3970 cd         1 2QA      -0.263600
      5 C5          -1.7260     0.0050     2.0230 c          1 2QA       0.614700
      6 C6          -1.7320    -0.2550     3.5220 c3         1 2QA      -0.166400
      7 C22          7.2330     0.0190     2.8160 c          1 2QA       0.723100
      8 N1           7.5790     0.6810     3.9380 ns         1 2QA      -0.581900
      9 C23          6.5730     1.3220     4.7810 c3         1 2QA       0.107000
     10 C24          5.4700     1.9510     3.9320 c3         1 2QA      -0.057100
     11 C13          4.9400     0.9420     2.9490 ca         1 2QA      -0.041300
     12 C12          3.6150     0.9400     2.5830 ca         1 2QA      -0.153000
     13 C14          5.8160     0.0000     2.4010 ca         1 2QA      -0.151600
     14 C15          5.3460    -0.9380     1.4830 ca         1 2QA       0.013700
     15 C17          6.2870    -1.9580     0.8950 c3         1 2QA      -0.065400
     16 C21          6.4260    -1.7340    -0.6250 c3         1 2QA      -0.074900
     17 C20          6.5190    -3.1640    -1.2130 c3         1 2QA      -0.085400
     18 C19          5.5220    -3.9600    -0.3340 c3         1 2QA      -0.085400
     19 C18          5.7130    -3.3740     1.0800 c3         1 2QA      -0.074900
     20 C16          4.0170    -0.9290     1.1180 ca         1 2QA      -0.145000
     21 C11          3.1480    -0.0010     1.6700 ca         1 2QA       0.019800
     22 N            1.8010     0.0000     1.2950 na         1 2QA       0.041800
     23 C8           0.7690     0.0270     3.6560 c3         1 2QA      -0.002100
     24 C7          -0.5850     0.5390     4.1550 c3         1 2QA      -0.057000
     25 C10         -0.6490     0.3900     5.6770 c3         1 2QA      -0.088600
     26 C9          -0.7310     2.0160     3.7870 c3         1 2QA      -0.088600
     27 O           -2.7440     0.2020     1.3920 o          1 2QA      -0.535100
     28 C           -0.9070     0.0010    -1.2030 c3         1 2QA      -0.013800
     29 H1           1.9750     0.0010    -0.8830 h4         1 2QA       0.174000
     30 H2          -2.6750     0.0700     3.9440 hc         1 2QA       0.069700
     31 H3          -1.5890    -1.3130     3.7080 hc         1 2QA       0.069700
     32 H4           8.5440     0.7340     4.1990 hn         1 2QA       0.331500
     33 H5           6.1280     0.5680     5.4180 h1         1 2QA       0.050700
     34 H6           7.0540     2.1040     5.3550 h1         1 2QA       0.050700
     35 H7           5.8880     2.7860     3.3810 hc         1 2QA       0.067700
     36 H8           4.6620     2.2580     4.5850 hc         1 2QA       0.067700
     37 H9           2.9330     1.6640     3.0120 ha         1 2QA       0.147000
     38 H10          7.2590    -1.8900     1.3680 hc         1 2QA       0.124700
     39 H11          7.3280    -1.1760    -0.8440 hc         1 2QA       0.046700
     40 H12          5.5530    -1.2230    -1.0130 hc         1 2QA       0.046700
     41 H13          6.2060    -3.1720    -2.2500 hc         1 2QA       0.044450
     42 H14          7.5220    -3.5570    -1.1040 hc         1 2QA       0.044450
     43 H15          4.5060    -3.8000    -0.6760 hc         1 2QA       0.044450
     44 H16          5.7700    -5.0150    -0.3430 hc         1 2QA       0.044450
     45 H17          4.7590    -3.3220     1.5900 hc         1 2QA       0.046700
     46 H18          6.4090    -3.9840     1.6420 hc         1 2QA       0.046700
     47 H19          3.6480    -1.6590     0.4090 ha         1 2QA       0.156000
     48 H20          1.5560     0.6830     4.0090 hc         1 2QA       0.057200
     49 H21          0.9340    -0.9770     4.0280 hc         1 2QA       0.057200
     50 H22         -0.5710    -0.6570     5.9410 hc         1 2QA       0.040200
     51 H23          0.1690     0.9390     6.1280 hc         1 2QA       0.040200
     52 H24         -1.5910     0.7840     6.0380 hc         1 2QA       0.040200
     53 H25         -1.7400     2.3450     4.0070 hc         1 2QA       0.040200
     54 H26         -0.5320     2.1470     2.7310 hc         1 2QA       0.040200
     55 H27         -0.0270     2.6040     4.3630 hc         1 2QA       0.040200
     56 H28         -1.5650    -0.8590    -1.1600 hc         1 2QA       0.046033
     57 H29         -1.4990     0.9080    -1.2090 hc         1 2QA       0.046033
     58 H30         -0.3100    -0.0470    -2.1060 hc         1 2QA       0.046033
     59 O1           8.0770    -0.5520     2.1520 o          1 2QA      -0.641500
@<TRIPOS>BOND
     1    17    16 1
     2    17    18 1
     3    16    15 1
     4    26    24 1
     5    59     7 2
     6    18    19 1
     7    15    19 1
     8    15    14 1
     9    25    24 1
    10    24    23 1
    11    24     6 1
    12     7    13 1
    13     7     8 1
    14    14    13 ar
    15    14    20 ar
    16    13    11 ar
    17    20    21 ar
    18    23     3 1
    19     8     9 1
    20     6     5 1
    21     5    27 2
    22     5     4 1
    23     3     4 2
    24     3    22 1
    25    21    22 1
    26    21    12 ar
    27    11    12 ar
    28    11    10 1
    29     4     1 1
    30    22     2 1
    31    10     9 1
    32     1     2 2
    33     1    28 1
    34     2    29 1
    35     6    30 1
    36     6    31 1
    37     8    32 1
    38     9    33 1
    39     9    34 1
    40    10    35 1
    41    10    36 1
    42    12    37 1
    43    15    38 1
    44    16    39 1
    45    16    40 1
    46    17    41 1
    47    17    42 1
    48    18    43 1
    49    18    44 1
    50    19    45 1
    51    19    46 1
    52    20    47 1
    53    23    48 1
    54    23    49 1
    55    25    50 1
    56    25    51 1
    57    25    52 1
    58    26    53 1
    59    26    54 1
    60    26    55 1
    61    28    56 1
    62    28    57 1
    63    28    58 1
@<TRIPOS>SUBSTRUCTURE
     1 2QA         1 TEMP              0 ****  ****    0 ROOT
