@<TRIPOS>MOLECULE
2QB
   20    20     1     0     0
SMALL
bcc


@<TRIPOS>ATOM
      1 NAH         0.2020    0.0780    0.7820 n1        1 2QB     -0.047000
      2 NAG         1.1220    0.1500    0.1220 n1        1 2QB      0.222000
      3 NAF         2.1350   -0.0040   -0.6020 n2        1 2QB     -0.466200
      4 CAE         2.8710    1.1280   -1.1400 c3        1 2QB      0.227100
      5 C5          3.4510    2.0750   -0.1480 ca        1 2QB     -0.445900
      6 C6          3.0210    3.4120   -0.0980 ca        1 2QB      0.475200
      7 N1          3.5120    4.3230    0.7540 nb        1 2QB     -0.742000
      8 C2          4.4890    3.8820    1.6170 ca        1 2QB      0.696300
      9 CAL         5.0470    4.8940    2.5900 c3        1 2QB     -0.138400
     10 N3          4.9920    2.6210    1.6690 nb        1 2QB     -0.773000
     11 C4          4.4870    1.7000    0.7730 ca        1 2QB      0.715200
     12 NAA         5.0370    0.4360    0.7500 nh        1 2QB     -0.953500
     13 H2          3.6950    0.6220   -1.7260 h1        1 2QB      0.069700
     14 H3          2.2440    1.7100   -1.8790 h1        1 2QB      0.069700
     15 H4          2.2350    3.7750   -0.7880 h4        1 2QB      0.023100
     16 H5          4.2170    5.2960    3.2220 hc        1 2QB      0.064033
     17 H6          5.8210    4.4390    3.2550 hc        1 2QB      0.064033
     18 H7          5.5080    5.7380    2.0210 hc        1 2QB      0.064033
     19 H8          4.5440   -0.2820    0.2790 hn        1 2QB      0.439300
     20 H9          5.6610    0.1690    1.4730 hn        1 2QB      0.439300
@<TRIPOS>BOND
     1    1    2 3
     2    2    3 1
     3    3    4 1
     4    4    5 1
     5    4   13 1
     6    4   14 1
     7    5    6 ar
     8    5   11 ar
     9    6    7 ar
    10    6   15 1
    11    7    8 ar
    12    8    9 1
    13    8   10 ar
    14    9   16 1
    15    9   17 1
    16    9   18 1
    17   10   11 ar
    18   11   12 1
    19   12   19 1
    20   12   20 1
@<TRIPOS>SUBSTRUCTURE
     1 2QB         1 TEMP              0 ****  ****    0 ROOT
