@<TRIPOS>MOLECULE
2QC
   23    24     1     0     0
SMALL
bcc


@<TRIPOS>ATOM
      1 CAE          0.0000     0.0000     0.0000 ca         1 2QC      -0.071000
      2 CAF          1.3800     0.0000     0.0000 ca         1 2QC      -0.065000
      3 CAK          2.0740     0.0000     1.1960 ca         1 2QC      -0.220300
      4 CAL          3.5810     0.0000     1.1900 c3         1 2QC       0.040100
      5 NAM          4.0710     1.3850     1.1880 nz         1 2QC       0.074400
      6 CAJ          1.3900     0.0010     2.3980 ca         1 2QC      -0.065000
      7 CAI          0.0090     0.0010     2.4100 ca         1 2QC      -0.071000
      8 CAD         -0.6940     0.0000     1.2070 ca         1 2QC      -0.044500
      9 CAC         -2.1790     0.0010     1.2130 cc         1 2QC       0.306800
     10 NAB         -2.9230     0.0010     0.1180 nc         1 2QC      -0.263000
     11 NAA         -4.1910     0.0020     0.2510 nd         1 2QC      -0.115100
     12 SAG         -4.5580     0.0020     1.7720 ss         1 2QC       0.159200
     13 CAH         -2.9360    -0.0050     2.3490 cd         1 2QC      -0.164400
     14 H1          -0.5420    -0.0000    -0.9380 ha         1 2QC       0.137500
     15 H2           1.9210    -0.0000    -0.9390 ha         1 2QC       0.109000
     16 H3           3.9460    -0.5110     2.0720 hx         1 2QC       0.081700
     17 H4           3.9380    -0.5100     0.3030 hx         1 2QC       0.081700
     18 H5           5.0710     1.3850     1.1810 hn         1 2QC       0.222467
     19 H6           3.7310     1.8580     0.3740 hn         1 2QC       0.222467
     20 H8           1.9390     0.0010     3.3320 ha         1 2QC       0.109000
     21 H9          -0.5250     0.0020     3.3520 ha         1 2QC       0.137500
     22 H11         -2.5950    -0.0060     3.3770 h4         1 2QC       0.174000
     23 HAM3         3.7620     1.8490     2.0190 hn         1 2QC       0.222467
@<TRIPOS>BOND
     1     1     2 ar  
     2     1     8 ar  
     3     1    14 1   
     4     2     3 ar  
     5     2    15 1   
     6     3     4 1   
     7     3     6 ar  
     8     4     5 1   
     9     4    16 1   
    10     4    17 1   
    11     5    18 1   
    12     5    19 1   
    13     5    23 1   
    14     6     7 ar  
    15     6    20 1   
    16     7     8 ar  
    17     7    21 1   
    18     8     9 1   
    19     9    10 1   
    20     9    13 2   
    21    10    11 2   
    22    11    12 1   
    23    12    13 1   
    24    13    22 1   
@<TRIPOS>SUBSTRUCTURE
     1 2QC         1 TEMP              0 ****  ****    0 ROOT
