@<TRIPOS>MOLECULE
molecule
   23    24     1     0     0
SMALL
bcc


@<TRIPOS>ATOM
      1 CAE          0.0000     0.0000     0.0000 ca         1 2QC      -0.098000
      2 CAF          1.3800     0.0000     0.0000 ca         1 2QC      -0.099500
      3 CAK          2.0740     0.0000     1.1960 ca         1 2QC      -0.201300
      4 CAL          3.5810     0.0000     1.1900 c3         1 2QC       0.160100
      5 NAM          4.0710     1.3850     1.1880 nz         1 2QC      -0.810600
      6 CAJ          1.3900     0.0010     2.3980 ca         1 2QC      -0.099500
      7 CAI          0.0090     0.0010     2.4100 ca         1 2QC      -0.098000
      8 CAD         -0.6940     0.0000     1.2070 ca         1 2QC      -0.043500
      9 CAC         -2.1790     0.0010     1.2130 cc         1 2QC       0.335800
     10 NAB         -2.9230     0.0010     0.1180 nc         1 2QC      -0.333000
     11 NAA         -4.1910     0.0020     0.2510 nd         1 2QC      -0.170100
     12 SAG         -4.5580     0.0020     1.7720 ss         1 2QC       0.308200
     13 CAH         -2.9360    -0.0050     2.3490 cd         1 2QC      -0.248400
     14 H1          -0.5420    -0.0000    -0.9380 ha         1 2QC       0.170000
     15 H2           1.9210    -0.0000    -0.9390 ha         1 2QC       0.138000
     16 H3           3.9460    -0.5110     2.0720 hx         1 2QC       0.112200
     17 H4           3.9380    -0.5100     0.3030 hx         1 2QC       0.112200
     18 H5           5.0710     1.3850     1.1810 hn         1 2QC       0.454467
     19 H6           3.7310     1.8580     0.3740 hn         1 2QC       0.454467
     20 H8           1.9390     0.0010     3.3320 ha         1 2QC       0.138000
     21 H9          -0.5250     0.0020     3.3520 ha         1 2QC       0.170000
     22 H11         -2.5950    -0.0060     3.3770 h4         1 2QC       0.197000
     23 HAM3         3.7620     1.8490     2.0190 hn         1 2QC       0.454467
@<TRIPOS>BOND
     1     1     2 ar
     2     1     8 ar
     3     2     3 ar
     4     3     4 1
     5     3     6 ar
     6     4     5 1
     7     6     7 ar
     8     7     8 ar
     9     8     9 1
    10     9    10 1
    11     9    13 2
    12    10    11 2
    13    11    12 1
    14    12    13 1
    15     1    14 1
    16     2    15 1
    17     4    16 1
    18     4    17 1
    19     5    18 1
    20     5    19 1
    21     6    20 1
    22     7    21 1
    23    13    22 1
    24    23     5 1
@<TRIPOS>SUBSTRUCTURE
     1 2QC         1 TEMP              0 ****  ****    0 ROOT
