@<TRIPOS>MOLECULE
2QE
   30    29     1     0     0
SMALL
bcc


@<TRIPOS>ATOM
      1 O            0.0000     0.0000     0.0000 o          1 2QE      -0.849800
      2 C            1.2080     0.0000     0.0000 c          1 2QE       0.971600
      3 OXT          1.8790     0.0000     1.1620 o          1 2QE      -0.849800
      4 CA           1.9620    -0.0050    -1.3060 c3         1 2QE      -0.221500
      5 N            1.0800    -0.4840    -2.3780 nz         1 2QE       0.075400
      6 CB           2.4330     1.4130    -1.6290 c3         1 2QE       0.006600
      7 CG           3.3030     1.3880    -2.8870 c3         1 2QE      -0.184700
      8 CD2          4.5600     0.6030    -2.6130 c          1 2QE       0.965600
      9 OAG          5.4780     0.4460    -3.5800 o          1 2QE      -0.865800
     10 OAD          4.7420     0.1140    -1.5230 o          1 2QE      -0.865800
     11 CD1          3.6720     2.8190    -3.2810 c3         1 2QE       0.023600
     12 CAH          4.4360     2.8030    -4.6070 c3         1 2QE      -0.118400
     13 CAN          4.7990     4.2120    -4.9950 c          1 2QE       0.696100
     14 OAE          4.4800     5.1360    -4.2850 o          1 2QE      -0.613000
     15 OAK          5.4780     4.4420    -6.1310 os         1 2QE      -0.419900
     16 CAA          5.7930     5.8250    -6.4410 c3         1 2QE       0.265700
     17 H2           2.8200    -0.6620    -1.2240 hx         1 2QE       0.148700
     18 H3           1.6340    -0.8330    -3.1350 hn         1 2QE       0.203133
     19 H4           0.5090     0.2710    -2.7030 hn         1 2QE       0.203133
     20 H6           3.0120     1.7990    -0.7980 hc         1 2QE       0.041700
     21 H7           1.5730     2.0500    -1.7970 hc         1 2QE       0.041700
     22 H8           2.7550     0.9200    -3.6960 hc         1 2QE      -0.016300
     23 H10          2.7690     3.4070    -3.3920 hc         1 2QE       0.015200
     24 H11          4.2950     3.2570    -2.5110 hc         1 2QE       0.015200
     25 H12          3.8120     2.3650    -5.3770 hc         1 2QE       0.076700
     26 H13          5.3380     2.2140    -4.4960 hc         1 2QE       0.076700
     27 H14          4.8750     6.3940    -6.5300 h1         1 2QE      -0.007633
     28 H15          6.4020     6.2430    -5.6490 h1         1 2QE      -0.007633
     29 H16          6.3380     5.8700    -7.3770 h1         1 2QE      -0.007633
     30 HN3          0.4920    -1.2140    -2.0260 hn         1 2QE       0.203133
@<TRIPOS>BOND
     1     1     2 1   
     2     2     3 1   
     3     2     4 1   
     4     4     5 1   
     5     4     6 1   
     6     4    17 1   
     7     5    18 1   
     8     5    19 1   
     9     5    30 1   
    10     6     7 1   
    11     6    20 1   
    12     6    21 1   
    13     7     8 1   
    14     7    11 1   
    15     7    22 1   
    16     8     9 1   
    17     8    10 1   
    18    11    12 1   
    19    11    23 1   
    20    11    24 1   
    21    12    13 1   
    22    12    25 1   
    23    12    26 1   
    24    13    14 2   
    25    13    15 1   
    26    15    16 1   
    27    16    27 1   
    28    16    28 1   
    29    16    29 1   
@<TRIPOS>SUBSTRUCTURE
     1 2QE         1 TEMP              0 ****  ****    0 ROOT
