@<TRIPOS>MOLECULE
molecule
   30    29     1     0     0
SMALL
bcc


@<TRIPOS>ATOM
      1 O            0.0000     0.0000     0.0000 o          1 2QE      -0.806800
      2 C            1.2080     0.0000     0.0000 c          1 2QE       0.876600
      3 OXT          1.8790     0.0000     1.1620 o          1 2QE      -0.806800
      4 CA           1.9620    -0.0050    -1.3060 c3         1 2QE      -0.019500
      5 N            1.0800    -0.4840    -2.3780 nz         1 2QE      -0.790600
      6 CB           2.4330     1.4130    -1.6290 c3         1 2QE      -0.060400
      7 CG           3.3030     1.3880    -2.8870 c3         1 2QE      -0.199700
      8 CD2          4.5600     0.6030    -2.6130 c          1 2QE       0.878600
      9 OAG          5.4780     0.4460    -3.5800 o          1 2QE      -0.826300
     10 OAD          4.7420     0.1140    -1.5230 o          1 2QE      -0.826300
     11 CD1          3.6720     2.8190    -3.2810 c3         1 2QE      -0.036400
     12 CAH          4.4360     2.8030    -4.6070 c3         1 2QE      -0.138400
     13 CAN          4.7990     4.2120    -4.9950 c          1 2QE       0.628100
     14 OAE          4.4800     5.1360    -4.2850 o          1 2QE      -0.574000
     15 OAK          5.4780     4.4420    -6.1310 os         1 2QE      -0.433900
     16 CAA          5.7930     5.8250    -6.4410 c3         1 2QE       0.137700
     17 H2           2.8200    -0.6620    -1.2240 hx         1 2QE       0.160700
     18 H3           1.6340    -0.8330    -3.1350 hn         1 2QE       0.429133
     19 H4           0.5090     0.2710    -2.7030 hn         1 2QE       0.429133
     20 H6           3.0120     1.7990    -0.7980 hc         1 2QE       0.070200
     21 H7           1.5730     2.0500    -1.7970 hc         1 2QE       0.070200
     22 H8           2.7550     0.9200    -3.6960 hc         1 2QE      -0.000300
     23 H10          2.7690     3.4070    -3.3920 hc         1 2QE       0.043200
     24 H11          4.2950     3.2570    -2.5110 hc         1 2QE       0.043200
     25 H12          3.8120     2.3650    -5.3770 hc         1 2QE       0.104200
     26 H13          5.3380     2.2140    -4.4960 hc         1 2QE       0.104200
     27 H14          4.8750     6.3940    -6.5300 h1         1 2QE       0.038367
     28 H15          6.4020     6.2430    -5.6490 h1         1 2QE       0.038367
     29 H16          6.3380     5.8700    -7.3770 h1         1 2QE       0.038367
     30 HN3          0.4920    -1.2140    -2.0260 hn         1 2QE       0.429133
@<TRIPOS>BOND
     1     1     2 1
     2     5     4 1
     3     2     4 1
     4     2     3 1
     5     4     6 1
     6     9     8 1
     7    10     8 1
     8     8     7 1
     9     6     7 1
    10     7    11 1
    11    16    15 1
    12    15    13 1
    13    14    13 2
    14    13    12 1
    15    11    12 1
    16     4    17 1
    17     5    18 1
    18     5    19 1
    19     6    20 1
    20     6    21 1
    21     7    22 1
    22    11    23 1
    23    11    24 1
    24    12    25 1
    25    12    26 1
    26    16    27 1
    27    16    28 1
    28    16    29 1
    29    30     5 1
@<TRIPOS>SUBSTRUCTURE
     1 2QE         1 TEMP              0 ****  ****    0 ROOT
