@<TRIPOS>MOLECULE
2QF
   46    49     1     0     0
SMALL
bcc


@<TRIPOS>ATOM
      1 C4           0.0000     0.0000     0.0000 cc         1 2QF       0.074000
      2 C5           1.3870     0.0000     0.0000 cd         1 2QF      -0.231600
      3 C6           2.0900     0.0000     1.2860 cd         1 2QF      -0.072000
      4 C7           1.3860    -0.0010     2.4290 cc         1 2QF      -0.284300
      5 C10          2.1370     0.0010    -1.2670 c          1 2QF       0.613700
      6 N12          3.4860     0.0010    -1.2500 ns         1 2QF      -0.204900
      7 C13          4.2340     0.0020    -2.5100 c3         1 2QF       0.106300
      8 C15          6.3900    -1.1950    -2.0830 ca         1 2QF      -0.115000
      9 C17          8.4220     0.0030    -1.6740 ca         1 2QF      -0.143500
     10 C24         11.3260     1.1960    -3.4780 ca         1 2QF      -0.045000
     11 C26         12.3140    -0.0050    -5.3030 ca         1 2QF      -0.119000
     12 C28         11.3260    -1.1990    -3.4730 ca         1 2QF      -0.045000
     13 C1          -2.1450    -0.0040     2.9190 cd         1 2QF      -0.118000
     14 C2          -2.0400     0.0030     1.5290 cd         1 2QF      -0.160000
     15 C3          -0.6850    -0.0020     1.2260 cc         1 2QF      -0.305300
     16 N8           0.0100    -0.0020     2.4180 na         1 2QF       0.659700
     17 C9          -0.8910    -0.0040     3.4370 cc         1 2QF      -0.389100
     18 O11          1.5420     0.0020    -2.3270 o          1 2QF      -0.653100
     19 C14          5.7120     0.0020    -2.2170 ca         1 2QF      -0.072300
     20 C16          7.7440    -1.1940    -1.8080 ca         1 2QF       0.001000
     21 C18          7.7450     1.2000    -1.8140 ca         1 2QF       0.001000
     22 C19          6.3890     1.2000    -2.0830 ca         1 2QF      -0.115000
     23 O21         10.4350     1.2540    -0.7130 o          1 2QF      -0.583800
     24 O22         10.4340    -1.2460    -0.7080 o          1 2QF      -0.583800
     25 C23         10.9940    -0.0000    -2.8700 ca         1 2QF      -0.096500
     26 C25         11.9860     1.1950    -4.6960 ca         1 2QF       0.106900
     27 C27         11.9810    -1.2020    -4.6930 ca         1 2QF       0.106900
     28 F29         12.2950    -2.3740    -5.2880 f          1 2QF      -0.117900
     29 F30         12.3100     2.3640    -5.2900 f          1 2QF      -0.117900
     30 H1          -0.5480    -0.0000    -0.9340 ha         1 2QF       0.135000
     31 H2           3.1730    -0.0000     1.3150 ha         1 2QF       0.112000
     32 H3           1.9100    -0.0010     3.3770 h4         1 2QF       0.136000
     33 H4           3.9750    -0.0140    -0.3770 hn         1 2QF       0.182500
     34 H5           3.9790     0.8870    -3.0800 h1         1 2QF       0.032700
     35 H6           3.9790    -0.8820    -3.0820 h1         1 2QF       0.032700
     36 H7           5.8590    -2.1330    -2.1880 ha         1 2QF       0.117000
     37 H9          12.8280    -0.0070    -6.2570 ha         1 2QF       0.136000
     38 H10         11.0650    -2.1360    -2.9950 ha         1 2QF       0.141000
     39 H11         -3.0680    -0.0090     3.4870 ha         1 2QF       0.126000
     40 H12         -2.8590     0.0050     0.8210 ha         1 2QF       0.132000
     41 H13         -0.6460    -0.0090     4.4920 h4         1 2QF       0.150000
     42 H14          8.2750    -2.1320    -1.7010 ha         1 2QF       0.125000
     43 H15          8.2760     2.1380    -1.7090 ha         1 2QF       0.125000
     44 H16          5.8580     2.1380    -2.1920 ha         1 2QF       0.117000
     45 S20         10.1490     0.0030    -1.3240 sy         1 2QF       0.964600
     46 H8          11.0670     2.1350    -3.0030 ha         1 2QF       0.141000
@<TRIPOS>BOND
     1     1     2 2   
     2     1    15 1   
     3     1    30 1   
     4     2     3 1   
     5     2     5 1   
     6     3     4 2   
     7     3    31 1   
     8     4    16 1   
     9     4    32 1   
    10     5     6 1   
    11     5    18 2   
    12     6     7 1   
    13     6    33 1   
    14     7    19 1   
    15     7    34 1   
    16     7    35 1   
    17     8    19 ar  
    18     8    20 ar  
    19     8    36 1   
    20     9    20 ar  
    21     9    21 ar  
    22     9    45 1   
    23    10    25 ar  
    24    10    26 ar  
    25    10    46 1   
    26    11    26 ar  
    27    11    27 ar  
    28    11    37 1   
    29    12    25 ar  
    30    12    27 ar  
    31    12    38 1   
    32    13    14 1   
    33    13    17 2   
    34    13    39 1   
    35    14    15 2   
    36    14    40 1   
    37    15    16 1   
    38    16    17 1   
    39    17    41 1   
    40    19    22 ar  
    41    20    42 1   
    42    21    22 ar  
    43    21    43 1   
    44    22    44 1   
    45    23    45 2   
    46    24    45 2   
    47    25    45 1   
    48    26    29 1   
    49    27    28 1   
@<TRIPOS>SUBSTRUCTURE
     1 2QF         1 TEMP              0 ****  ****    0 ROOT
