@<TRIPOS>MOLECULE
molecule
   48    49     1     0     0
SMALL
bcc


@<TRIPOS>ATOM
      1 C1           0.0000     0.0000     0.0000 ca         1 2QG      -0.200000
      2 C2           1.3820     0.0000     0.0000 ca         1 2QG      -0.074000
      3 C3           2.0740     0.0000     1.1980 ca         1 2QG       0.008400
      4 C4           1.3850    -0.0010     2.3980 ca         1 2QG      -0.074000
      5 C5           0.0040    -0.0020     2.4020 ca         1 2QG      -0.200000
      6 C6          -0.6930    -0.0010     1.2020 ca         1 2QG       0.118100
      7 C8          -2.6980     0.0030     2.4780 c3         1 2QG       0.135400
      8 C9          -4.2160     0.0100     2.2790 c3         1 2QG      -0.074400
      9 C10         -4.9090     0.0080     3.6430 c3         1 2QG      -0.072400
     10 C11         -6.4250     0.0150     3.4450 c3         1 2QG      -0.094400
     11 C12         -7.1180     0.0130     4.8090 c3         1 2QG      -0.018400
     12 C13         -8.6350     0.0200     4.6100 c3         1 2QG      -0.242200
     13 C15        -10.1410     0.9650     6.2200 c2         1 2QG       0.567100
     14 C17        -11.4420     2.8310     5.5600 c1         1 2QG       0.279600
     15 C20        -10.3060     0.0910     8.4490 ca         1 2QG       0.119600
     16 C21         -9.0040    -0.4070     8.5050 ca         1 2QG      -0.280300
     17 O7          -2.0520     0.0050     1.2040 os         1 2QG      -0.318900
     18 N14         -9.2980     0.0190     5.9170 n2         1 2QG      -0.617900
     19 N16        -10.5020     1.8970     5.2710 nu         1 2QG      -0.527800
     20 N18        -12.2400     3.6060     5.7880 n1         1 2QG      -0.347800
     21 N19        -10.6710     1.0330     7.4900 nu         1 2QG      -0.802600
     22 C22         -8.6840    -1.3420     9.4670 ca         1 2QG       0.446700
     23 N23         -9.5920    -1.7660    10.3260 nb         1 2QG      -0.664000
     24 C24        -10.8330    -1.3210    10.3060 ca         1 2QG       0.446700
     25 C25        -11.2330    -0.3830     9.3760 ca         1 2QG      -0.280300
     26 Cl1          3.8100    -0.0010     1.1950 cl         1 2QG      -0.110400
     27 H1          -0.8290     0.3180    -0.6210 ha         1 2QG       0.152500
     28 H2           1.7020     0.0520    -1.0340 ha         1 2QG       0.149500
     29 H3           1.8790    -0.0220     3.3620 ha         1 2QG       0.149500
     30 H4          -0.5090     0.1140     3.3490 ha         1 2QG       0.152500
     31 H5          -2.2960    -0.6080     3.2770 h1         1 2QG       0.029700
     32 H6          -2.5050     0.9680     2.9320 h1         1 2QG       0.029700
     33 H7          -4.4500    -0.9330     1.8000 hc         1 2QG       0.059700
     34 H8          -4.6350     0.8390     1.7220 hc         1 2QG       0.059700
     35 H9          -4.6920    -0.8560     4.2600 hc         1 2QG       0.051200
     36 H10         -4.6850     0.9820     4.0610 hc         1 2QG       0.051200
     37 H11         -6.9100    -0.5650     2.6690 hc         1 2QG       0.039200
     38 H12         -6.7360     0.9680     3.0340 hc         1 2QG       0.039200
     39 H13         -6.8370     0.8540     5.4310 hc         1 2QG       0.024200
     40 H14         -6.4980    -0.7690     5.2300 hc         1 2QG       0.024200
     41 H15         -8.9010     0.3290     3.6060 h1         1 2QG       0.219200
     42 H16         -9.1650     0.2650     5.5230 h1         1 2QG       0.219200
     43 H17         -8.1470    -0.1750     7.8830 ha         1 2QG       0.180500
     44 H18         -9.9840     2.7520     5.2140 hn         1 2QG       0.423800
     45 H19        -10.3090     0.2930     8.0580 hn         1 2QG       0.555800
     46 H20         -7.6040    -1.2770     9.5180 h4         1 2QG       0.042600
     47 H21        -11.5690    -1.8320    10.9150 h4         1 2QG       0.042600
     48 H22        -12.1810     0.1150     9.2130 ha         1 2QG       0.180500
@<TRIPOS>BOND
     1     2     1 ar  
     2     2     3 ar  
     3     1     6 ar  
     4    26     3 1   
     5     3     4 ar  
     6     6    17 1   
     7     6     5 ar  
     8     7    17 1   
     9     7     8 1   
    10     8     9 1   
    11     4     5 ar  
    12     9    10 1   
    13    10    11 1   
    14    20    14 3   
    15    11    12 1   
    16    12    18 1   
    17    14    19 1   
    18    18    13 2   
    19    19    13 1   
    20    13    21 1   
    21    21    15 1   
    22    16    15 ar  
    23    16    22 ar  
    24    15    25 ar  
    25    22    23 ar  
    26    25    24 ar  
    27    23    24 ar  
    28     1    27 1   
    29     2    28 1   
    30     4    29 1   
    31     5    30 1   
    32     7    31 1   
    33     7    32 1   
    34     8    33 1   
    35     8    34 1   
    36     9    35 1   
    37     9    36 1   
    38    10    37 1   
    39    10    38 1   
    40    11    39 1   
    41    11    40 1   
    42    12    41 1   
    43    12    42 1   
    44    16    43 1   
    45    19    44 1   
    46    21    45 1   
    47    22    46 1   
    48    24    47 1   
    49    25    48 1   
@<TRIPOS>SUBSTRUCTURE
     1 2QG         1 TEMP              0 ****  ****    0 ROOT
