@<TRIPOS>MOLECULE
2QG
   48    49     1     0     0
SMALL
bcc


@<TRIPOS>ATOM
      1 C1           0.0000     0.0000     0.0000 ca         1 2QG      -0.191000
      2 C2           1.3820     0.0000     0.0000 ca         1 2QG      -0.060500
      3 C3           2.0740     0.0000     1.1980 ca         1 2QG      -0.029600
      4 C4           1.3850    -0.0010     2.3980 ca         1 2QG      -0.060500
      5 C5           0.0040    -0.0020     2.4020 ca         1 2QG      -0.191000
      6 C6          -0.6930    -0.0010     1.2020 ca         1 2QG       0.147100
      7 C8          -2.6980     0.0030     2.4780 c3         1 2QG       0.218400
      8 C9          -4.2160     0.0100     2.2790 c3         1 2QG      -0.028400
      9 C10         -4.9090     0.0080     3.6430 c3         1 2QG      -0.077400
     10 C11         -6.4250     0.0150     3.4450 c3         1 2QG      -0.055400
     11 C12         -7.1180     0.0130     4.8090 c3         1 2QG      -0.047400
     12 C13         -8.6350     0.0200     4.6100 c3         1 2QG       0.108800
     13 C15        -10.1410     0.9650     6.2200 c2         1 2QG       0.494100
     14 C17        -11.4420     2.8310     5.5600 c1         1 2QG       0.171600
     15 C20        -10.3060     0.0910     8.4490 ca         1 2QG       0.096600
     16 C21         -9.0040    -0.4070     8.5050 ca         1 2QG      -0.244300
     17 O7          -2.0520     0.0050     1.2040 os         1 2QG      -0.318900
     18 N14         -9.2980     0.0190     5.9170 n2         1 2QG      -0.629900
     19 N16        -10.5020     1.8970     5.2710 nu         1 2QG      -0.182800
     20 N18        -12.2410     3.5980     5.8080 n1         1 2QG      -0.372800
     21 N19        -10.6710     1.0330     7.4900 nu         1 2QG      -0.268600
     22 C22         -8.6840    -1.3420     9.4670 ca         1 2QG       0.395700
     23 N23         -9.5920    -1.7660    10.3260 nb         1 2QG      -0.645000
     24 C24        -10.8330    -1.3210    10.3060 ca         1 2QG       0.395700
     25 C25        -11.2330    -0.3830     9.3760 ca         1 2QG      -0.244300
     26 Cl1          3.8100    -0.0010     1.1950 cl         1 2QG      -0.033400
     27 H1          -0.6360    -0.0550    -0.8750 ha         1 2QG       0.122000
     28 H2           1.6730    -0.0610    -1.0420 ha         1 2QG       0.122000
     29 H3           1.6370    -0.0260     3.4510 ha         1 2QG       0.122000
     30 H4          -0.5240     0.0370     3.3470 ha         1 2QG       0.122000
     31 H5          -2.4290     0.9620     2.9050 h1         1 2QG       0.013200
     32 H6          -2.3520    -0.8970     2.9700 h1         1 2QG       0.013200
     33 H7          -4.5510     0.9900     1.9630 hc         1 2QG       0.037700
     34 H8          -4.7540    -0.8470     1.8920 hc         1 2QG       0.037700
     35 H9          -4.7020    -0.7170     4.4220 hc         1 2QG       0.010700
     36 H10         -4.6580     0.9250     4.1630 hc         1 2QG       0.010700
     37 H11         -6.6440     0.7830     2.7120 hc         1 2QG       0.021200
     38 H12         -6.5380    -0.9810     3.0330 hc         1 2QG       0.021200
     39 H13         -6.8250    -0.7830     5.4820 hc         1 2QG       0.020700
     40 H14         -6.6230     0.9280     5.1110 hc         1 2QG       0.020700
     41 H15         -8.7880     0.6300     3.7280 h1         1 2QG       0.036700
     42 H16         -8.4060    -0.9680     4.2310 h1         1 2QG       0.036700
     43 H17         -8.1880    -0.4190     7.7920 ha         1 2QG       0.139500
     44 H18         -9.9180     2.1400     4.4950 hn         1 2QG       0.306800
     45 H19        -11.4120     1.7050     7.4560 hn         1 2QG       0.292800
     46 H20         -7.6740    -1.7140     9.3390 h4         1 2QG       0.002100
     47 H21        -11.1100    -2.0070    11.0980 h4         1 2QG       0.002100
     48 H22        -12.2390    -0.0510     9.6000 ha         1 2QG       0.139500
@<TRIPOS>BOND
     1     1     2 ar  
     2     1     6 ar  
     3     1    27 1   
     4     2     3 ar  
     5     2    28 1   
     6     3     4 ar  
     7     3    26 1   
     8     4     5 ar  
     9     4    29 1   
    10     5     6 ar  
    11     5    30 1   
    12     6    17 1   
    13     7     8 1   
    14     7    17 1   
    15     7    31 1   
    16     7    32 1   
    17     8     9 1   
    18     8    33 1   
    19     8    34 1   
    20     9    10 1   
    21     9    35 1   
    22     9    36 1   
    23    10    11 1   
    24    10    37 1   
    25    10    38 1   
    26    11    12 1   
    27    11    39 1   
    28    11    40 1   
    29    12    18 1   
    30    12    41 1   
    31    12    42 1   
    32    13    18 2   
    33    13    19 1   
    34    13    21 1   
    35    14    19 1   
    36    14    20 3   
    37    15    16 ar  
    38    15    21 1   
    39    15    25 ar  
    40    16    22 ar  
    41    16    43 1   
    42    19    44 1   
    43    21    45 1   
    44    22    23 ar  
    45    22    46 1   
    46    23    24 ar  
    47    24    25 ar  
    48    24    47 1   
    49    25    48 1   
@<TRIPOS>SUBSTRUCTURE
     1 2QG         1 TEMP              0 ****  ****    0 ROOT
