@<TRIPOS>MOLECULE
2QH
   57    61     1     0     0
SMALL
bcc


@<TRIPOS>ATOM
      1 C1           0.0000     0.0000     0.0000 c3         1 2QH       0.071200
      2 C2           1.5070     0.0000     0.0000 ca         1 2QH      -0.119300
      3 C3           2.1990     0.0000     1.1960 ca         1 2QH      -0.051000
      4 C4           3.5800    -0.0000     1.1960 ca         1 2QH      -0.177300
      5 C5           4.2750     0.0000     0.0010 ca         1 2QH      -0.053000
      6 C6           3.5880    -0.0000    -1.1980 ca         1 2QH      -0.195000
      7 C7           2.2010    -0.0060    -1.2010 ca         1 2QH       0.182100
      8 O8           1.5220    -0.0120    -2.3790 os         1 2QH      -0.295900
      9 C9           2.3020    -0.0180    -3.5760 c3         1 2QH       0.241700
     10 C10          4.3330     0.0010     2.5030 c3         1 2QH       0.233500
     11 C11          5.6080     0.7920     2.3780 c2         1 2QH       0.429200
     12 N12          6.6330     0.6020     1.6290 n2         1 2QH      -0.465900
     13 C13          7.7710     1.5250     1.7210 c3         1 2QH       0.105800
     14 C14          7.2890     2.9280     2.0960 c3         1 2QH       0.353600
     15 C15          6.5120     2.8720     3.4200 c3         1 2QH       0.117800
     16 N16          5.4710     1.8420     3.2690 nh         1 2QH      -0.381600
     17 C17          4.2760     1.7430     3.9230 c2         1 2QH       0.224100
     18 N18          3.5700     0.7210     3.5390 n2         1 2QH      -0.431900
     19 N19          3.8620     2.6310     4.8870 nz         1 2QH       0.223400
     20 F20          8.3930     3.7760     2.2410 f          1 2QH      -0.191800
     21 F21          6.4550     3.4180     1.0870 f          1 2QH      -0.191800
     22 C22          4.6230    -1.4100     2.9450 ca         1 2QH      -0.134300
     23 C23          5.8040    -2.0220     2.5660 ca         1 2QH      -0.077000
     24 C24          6.0810    -3.3150     2.9730 ca         1 2QH      -0.118000
     25 C25          5.1770    -4.0030     3.7610 ca         1 2QH       0.141900
     26 C26          3.9840    -3.3880     4.1450 cp         1 2QH      -0.043000
     27 C27          3.7120    -2.0860     3.7320 ca         1 2QH      -0.056000
     28 C28          3.0080    -4.1200     4.9900 cp         1 2QH      -0.177300
     29 C29          2.6030    -5.4130     4.6490 ca         1 2QH      -0.041000
     30 C30          1.6910    -6.0530     5.4700 ca         1 2QH      -0.208300
     31 C31          1.2150    -5.3990     6.5920 ca         1 2QH       0.420200
     32 N32          1.6160    -4.1780     6.8880 nb         1 2QH      -0.580000
     33 C33          2.4860    -3.5310     6.1400 ca         1 2QH       0.411200
     34 F34          5.4460    -5.2650     4.1570 f          1 2QH      -0.112900
     35 H1          -0.3610     0.6410    -0.7950 hc         1 2QH       0.015033
     36 H2          -0.3610     0.3680     0.9530 hc         1 2QH       0.015033
     37 H3          -0.3610    -1.0090    -0.1580 hc         1 2QH       0.015033
     38 H4           1.6570    -0.0000     2.1340 ha         1 2QH       0.113000
     39 H5           5.3580     0.0020     0.0040 ha         1 2QH       0.131000
     40 H6           4.1320    -0.0020    -2.1350 ha         1 2QH       0.133000
     41 H7           1.6430    -0.0160    -4.4360 h1         1 2QH       0.004367
     42 H8           2.9310     0.8640    -3.6020 h1         1 2QH       0.004367
     43 H9           2.9220    -0.9050    -3.5990 h1         1 2QH       0.004367
     44 H10          8.2750     1.5650     0.7630 h1         1 2QH       0.072200
     45 H11          8.4580     1.1690     2.4790 h1         1 2QH       0.072200
     46 H12          6.0410     3.8320     3.5970 h1         1 2QH       0.052200
     47 H13          7.1850     2.5850     4.2180 h1         1 2QH       0.052200
     48 H14          4.5070     2.6180     5.6520 hn         1 2QH       0.222133
     49 H15          2.9530     2.3690     5.2130 hn         1 2QH       0.222133
     50 H16          6.5160    -1.4870     1.9490 ha         1 2QH       0.139000
     51 H17          7.0080    -3.7890     2.6730 ha         1 2QH       0.132000
     52 H18          2.7880    -1.6040     4.0280 ha         1 2QH       0.123000
     53 H19          2.9930    -5.9020     3.7640 ha         1 2QH       0.121000
     54 H20          1.3550    -7.0560     5.2370 ha         1 2QH       0.123000
     55 H21          0.4990    -5.8960     7.2360 h4         1 2QH      -0.012900
     56 H22          2.7910    -2.5290     6.4160 h4         1 2QH      -0.031900
     57 H193         3.8170     3.5510     4.4960 hn         1 2QH       0.222133
@<TRIPOS>BOND
     1     1     2 1   
     2     1    35 1   
     3     1    36 1   
     4     1    37 1   
     5     2     3 ar  
     6     2     7 ar  
     7     3     4 ar  
     8     3    38 1   
     9     4     5 ar  
    10     4    10 1   
    11     5     6 ar  
    12     5    39 1   
    13     6     7 ar  
    14     6    40 1   
    15     7     8 1   
    16     8     9 1   
    17     9    41 1   
    18     9    42 1   
    19     9    43 1   
    20    10    11 1   
    21    10    18 1   
    22    10    22 1   
    23    11    12 2   
    24    11    16 1   
    25    12    13 1   
    26    13    14 1   
    27    13    44 1   
    28    13    45 1   
    29    14    15 1   
    30    14    20 1   
    31    14    21 1   
    32    15    16 1   
    33    15    46 1   
    34    15    47 1   
    35    16    17 1   
    36    17    18 2   
    37    17    19 1   
    38    19    48 1   
    39    19    49 1   
    40    19    57 1   
    41    22    23 ar  
    42    22    27 ar  
    43    23    24 ar  
    44    23    50 1   
    45    24    25 ar  
    46    24    51 1   
    47    25    26 ar  
    48    25    34 1   
    49    26    27 ar  
    50    26    28 1   
    51    27    52 1   
    52    28    29 ar  
    53    28    33 ar  
    54    29    30 ar  
    55    29    53 1   
    56    30    31 ar  
    57    30    54 1   
    58    31    32 ar  
    59    31    55 1   
    60    32    33 ar  
    61    33    56 1   
@<TRIPOS>SUBSTRUCTURE
     1 2QH         1 TEMP              0 ****  ****    0 ROOT
