@<TRIPOS>MOLECULE
molecule
   57    61     1     0     0
SMALL
bcc


@<TRIPOS>ATOM
      1 C1           0.0000     0.0000     0.0000 c3         1 2QH      -0.038800
      2 C2           1.5070     0.0000     0.0000 ca         1 2QH      -0.108300
      3 C3           2.1990     0.0000     1.1960 ca         1 2QH      -0.072000
      4 C4           3.5800    -0.0000     1.1960 ca         1 2QH      -0.152300
      5 C5           4.2750     0.0000     0.0010 ca         1 2QH      -0.072000
      6 C6           3.5880    -0.0000    -1.1980 ca         1 2QH      -0.211000
      7 C7           2.2010    -0.0060    -1.2010 ca         1 2QH       0.170100
      8 O8           1.5220    -0.0120    -2.3790 os         1 2QH      -0.315900
      9 C9           2.3020    -0.0180    -3.5760 c3         1 2QH       0.123700
     10 C10          4.3330     0.0010     2.5030 c3         1 2QH       0.227500
     11 C11          5.6080     0.7920     2.3780 c2         1 2QH       0.613200
     12 N12          6.6330     0.6020     1.6290 n2         1 2QH      -0.574900
     13 C13          7.7710     1.5250     1.7210 c3         1 2QH       0.079800
     14 C14          7.2890     2.9280     2.0960 c3         1 2QH       0.376600
     15 C15          6.5120     2.8720     3.4200 c3         1 2QH       0.171800
     16 N16          5.4710     1.8420     3.2690 nh         1 2QH      -0.783600
     17 C17          4.2760     1.7430     3.9230 c2         1 2QH       0.613100
     18 N18          3.5700     0.7210     3.5390 n2         1 2QH      -0.535900
     19 N19          3.8620     2.6310     4.8870 nz         1 2QH      -0.725600
     20 F20          8.3930     3.7760     2.2410 f          1 2QH      -0.205300
     21 F21          6.4550     3.4180     1.0870 f          1 2QH      -0.205300
     22 C22          4.6230    -1.4100     2.9450 ca         1 2QH      -0.119300
     23 C23          5.8040    -2.0220     2.5660 ca         1 2QH      -0.088000
     24 C24          6.0810    -3.3150     2.9730 ca         1 2QH      -0.160000
     25 C25          5.1770    -4.0030     3.7610 ca         1 2QH       0.167900
     26 C26          3.9840    -3.3880     4.1450 cp         1 2QH      -0.066000
     27 C27          3.7120    -2.0860     3.7320 ca         1 2QH      -0.071000
     28 C28          3.0080    -4.1200     4.9900 cp         1 2QH      -0.182300
     29 C29          2.6030    -5.4130     4.6490 ca         1 2QH      -0.064000
     30 C30          1.6910    -6.0530     5.4700 ca         1 2QH      -0.244300
     31 C31          1.2150    -5.3990     6.5920 ca         1 2QH       0.434200
     32 N32          1.6160    -4.1780     6.8880 nb         1 2QH      -0.689000
     33 C33          2.4860    -3.5310     6.1400 ca         1 2QH       0.430200
     34 F34          5.4460    -5.2650     4.1570 f          1 2QH      -0.118900
     35 H1          -0.3610     0.6410    -0.7950 hc         1 2QH       0.051700
     36 H2          -0.3610     0.3680     0.9530 hc         1 2QH       0.051700
     37 H3          -0.3610    -1.0090    -0.1580 hc         1 2QH       0.051700
     38 H4           1.6570    -0.0000     2.1340 ha         1 2QH       0.140000
     39 H5           5.3580     0.0020     0.0040 ha         1 2QH       0.157000
     40 H6           4.1320    -0.0020    -2.1350 ha         1 2QH       0.152000
     41 H7           1.6430    -0.0160    -4.4360 h1         1 2QH       0.050033
     42 H8           2.9310     0.8640    -3.6020 h1         1 2QH       0.050033
     43 H9           2.9220    -0.9050    -3.5990 h1         1 2QH       0.050033
     44 H10          8.2750     1.5650     0.7630 h1         1 2QH       0.110200
     45 H11          8.4580     1.1690     2.4790 h1         1 2QH       0.110200
     46 H12          6.0410     3.8320     3.5970 h1         1 2QH       0.080200
     47 H13          7.1850     2.5850     4.2180 h1         1 2QH       0.080200
     48 H14          4.5070     2.6180     5.6520 hn         1 2QH       0.480133
     49 H15          2.9530     2.3690     5.2130 hn         1 2QH       0.480133
     50 H16          6.5160    -1.4870     1.9490 ha         1 2QH       0.165000
     51 H17          7.0080    -3.7890     2.6730 ha         1 2QH       0.162000
     52 H18          2.7880    -1.6040     4.0280 ha         1 2QH       0.149000
     53 H19          2.9930    -5.9020     3.7640 ha         1 2QH       0.151000
     54 H20          1.3550    -7.0560     5.2370 ha         1 2QH       0.151000
     55 H21          0.4990    -5.8960     7.2360 h4         1 2QH       0.034100
     56 H22          2.7910    -2.5290     6.4160 h4         1 2QH       0.010100
     57 H193         3.8170     3.5510     4.4960 hn         1 2QH       0.480133
@<TRIPOS>BOND
     1    34    25 1   
     2    24    25 ar  
     3    24    23 ar  
     4    25    26 ar  
     5    29    30 ar  
     6    29    28 ar  
     7    23    22 ar  
     8    30    31 ar  
     9    26    28 1   
    10    26    27 ar  
    11    20    14 1   
    12    28    33 ar  
    13    31    32 ar  
    14    13    12 1   
    15    13    14 1   
    16    33    32 ar  
    17    12    11 2   
    18    22    27 ar  
    19    22    10 1   
    20    14    21 1   
    21    14    15 1   
    22    11    10 1   
    23    11    16 1   
    24    10     4 1   
    25    10    18 1   
    26     3     4 ar  
    27     3     2 ar  
    28    15    16 1   
    29     1     2 1   
    30    16    17 1   
    31     4     5 ar  
    32    18    17 2   
    33    17    19 1   
    34     2     7 ar  
    35     5     6 ar  
    36     7     6 ar  
    37     7     8 1   
    38     8     9 1   
    39     1    35 1   
    40     1    36 1   
    41     1    37 1   
    42     3    38 1   
    43     5    39 1   
    44     6    40 1   
    45     9    41 1   
    46     9    42 1   
    47     9    43 1   
    48    13    44 1   
    49    13    45 1   
    50    15    46 1   
    51    15    47 1   
    52    19    48 1   
    53    19    49 1   
    54    23    50 1   
    55    24    51 1   
    56    27    52 1   
    57    29    53 1   
    58    30    54 1   
    59    31    55 1   
    60    33    56 1   
    61    57    19 1   
@<TRIPOS>SUBSTRUCTURE
     1 2QH         1 TEMP              0 ****  ****    0 ROOT
