@<TRIPOS>MOLECULE
2QJ
   39    40     1     0     0
SMALL
bcc


@<TRIPOS>ATOM
      1 C1           1.5300     0.0000     0.0000 c3         1 2QJ      -0.032100
      2 C2           0.0000     0.0000     0.0000 c3         1 2QJ       0.032800
      3 C3          -0.5030     0.0000     1.4210 c          1 2QJ       0.575100
      4 O4          -0.7910     1.0460     1.9620 o          1 2QJ      -0.606100
      5 N5          -0.6330    -1.1630     2.0890 ns         1 2QJ      -0.000100
      6 C6          -0.9880    -1.1560     3.4430 ca         1 2QJ      -0.039400
      7 C7          -0.7160    -0.0450     4.2280 ca         1 2QJ      -0.146000
      8 C8          -1.0680    -0.0400     5.5640 ca         1 2QJ       0.028000
      9 C9          -1.6910    -1.1420     6.1190 ca         1 2QJ      -0.155500
     10 C10         -1.9650    -2.2530     5.3410 ca         1 2QJ       0.026000
     11 C11         -1.6200    -2.2610     4.0040 ca         1 2QJ      -0.106600
     12 Cl1         -1.9610    -3.6540     3.0260 cl         1 2QJ      -0.008400
     13 S13         -2.1390    -1.1330     7.8240 sy         1 2QJ       0.965600
     14 O14         -2.2220    -2.4930     8.2240 o          1 2QJ      -0.587800
     15 O15         -1.2870    -0.1870     8.4570 o          1 2QJ      -0.587800
     16 C16         -3.7720    -0.4810     7.9310 ca         1 2QJ      -0.140500
     17 C17         -3.9660     0.8790     8.0790 ca         1 2QJ       0.009000
     18 C18         -5.2470     1.3900     8.1630 ca         1 2QJ      -0.125000
     19 C19         -6.3360     0.5410     8.0990 ca         1 2QJ      -0.030000
     20 C20         -6.1430    -0.8200     7.9520 ca         1 2QJ      -0.001900
     21 C21         -4.8600    -1.3310     7.8620 ca         1 2QJ       0.019000
     22 Br2         -7.6320    -1.9830     7.8650 br         1 2QJ      -0.115100
     23 C23         -0.5090     1.2500    -0.7210 c3         1 2QJ       0.568900
     24 F24         -1.9080     1.2510    -0.7210 f          1 2QJ      -0.197967
     25 F25         -0.0430     2.3920    -0.0610 f          1 2QJ      -0.197967
     26 F26         -0.0430     1.2500    -2.0400 f          1 2QJ      -0.197967
     27 O27         -0.4780    -1.1660    -0.6740 oh         1 2QJ      -0.568800
     28 H1           1.8910     0.7920     0.6440 hc         1 2QJ       0.032033
     29 H2           1.8910     0.1620    -1.0080 hc         1 2QJ       0.032033
     30 H3           1.8910    -0.9540     0.3640 hc         1 2QJ       0.032033
     31 H4          -0.4690    -2.0310     1.6190 hn         1 2QJ       0.192500
     32 H5          -0.2280     0.8190     3.7930 ha         1 2QJ       0.162000
     33 H6          -0.8560     0.8280     6.1770 ha         1 2QJ       0.126000
     34 H7          -2.4550    -3.1140     5.7790 ha         1 2QJ       0.134000
     35 H8          -3.1130     1.5450     8.1290 ha         1 2QJ       0.124000
     36 H9          -5.3980     2.4570     8.2790 ha         1 2QJ       0.114000
     37 H10         -7.3410     0.9420     8.1670 ha         1 2QJ       0.116000
     38 H11         -4.7080    -2.3980     7.7460 ha         1 2QJ       0.134000
     39 H12         -0.0700    -1.2280    -1.5220 ho         1 2QJ       0.418000
@<TRIPOS>BOND
     1     1     2 1   
     2     1    28 1   
     3     1    29 1   
     4     1    30 1   
     5     2     3 1   
     6     2    23 1   
     7     2    27 1   
     8     3     4 2   
     9     3     5 1   
    10     5     6 1   
    11     5    31 1   
    12     6     7 ar  
    13     6    11 ar  
    14     7     8 ar  
    15     7    32 1   
    16     8     9 ar  
    17     8    33 1   
    18     9    10 ar  
    19     9    13 1   
    20    10    11 ar  
    21    10    34 1   
    22    11    12 1   
    23    13    14 2   
    24    13    15 2   
    25    13    16 1   
    26    16    17 ar  
    27    16    21 ar  
    28    17    18 ar  
    29    17    35 1   
    30    18    19 ar  
    31    18    36 1   
    32    19    20 ar  
    33    19    37 1   
    34    20    21 ar  
    35    20    22 1   
    36    21    38 1   
    37    23    24 1   
    38    23    25 1   
    39    23    26 1   
    40    27    39 1   
@<TRIPOS>SUBSTRUCTURE
     1 2QJ         1 TEMP              0 ****  ****    0 ROOT
