@<TRIPOS>MOLECULE
molecule
   39    40     1     0     0
SMALL
bcc


@<TRIPOS>ATOM
      1 C1           1.5300     0.0000     0.0000 c3         1 2QJ      -0.129100
      2 C2           0.0000     0.0000     0.0000 c3         1 2QJ       0.030800
      3 C3          -0.5030     0.0000     1.4210 c          1 2QJ       0.685100
      4 O4          -0.7910     1.0460     1.9620 o          1 2QJ      -0.561100
      5 N5          -0.6330    -1.1630     2.0890 ns         1 2QJ      -0.452100
      6 C6          -0.9880    -1.1560     3.4430 ca         1 2QJ       0.118600
      7 C7          -0.7160    -0.0450     4.2280 ca         1 2QJ      -0.157000
      8 C8          -1.0680    -0.0400     5.5640 ca         1 2QJ      -0.007000
      9 C9          -1.6910    -1.1420     6.1190 ca         1 2QJ      -0.313500
     10 C10         -1.9650    -2.2530     5.3410 ca         1 2QJ      -0.001000
     11 C11         -1.6200    -2.2610     4.0040 ca         1 2QJ      -0.033600
     12 Cl1         -1.9610    -3.6540     3.0260 cl         1 2QJ      -0.095400
     13 S13         -2.1390    -1.1330     7.8240 sy         1 2QJ       1.295600
     14 O14         -2.2220    -2.4930     8.2240 o          1 2QJ      -0.621300
     15 O15         -1.2870    -0.1870     8.4570 o          1 2QJ      -0.621300
     16 C16         -3.7720    -0.4810     7.9310 ca         1 2QJ      -0.297500
     17 C17         -3.9660     0.8790     8.0790 ca         1 2QJ      -0.018000
     18 C18         -5.2470     1.3900     8.1630 ca         1 2QJ      -0.147000
     19 C19         -6.3360     0.5410     8.0990 ca         1 2QJ      -0.049000
     20 C20         -6.1430    -0.8200     7.9520 ca         1 2QJ      -0.041900
     21 C21         -4.8600    -1.3310     7.8620 ca         1 2QJ      -0.004000
     22 Br2         -7.6320    -1.9830     7.8650 br         1 2QJ      -0.081100
     23 C23         -0.5090     1.2500    -0.7210 c3         1 2QJ       0.608900
     24 F24         -1.9080     1.2510    -0.7210 f          1 2QJ      -0.211967
     25 F25         -0.0430     2.3920    -0.0610 f          1 2QJ      -0.211967
     26 F26         -0.0430     1.2500    -2.0400 f          1 2QJ      -0.211967
     27 O27         -0.4780    -1.1660    -0.6740 oh         1 2QJ      -0.581800
     28 H1           1.8910     0.7920     0.6440 hc         1 2QJ       0.068367
     29 H2           1.8910     0.1620    -1.0080 hc         1 2QJ       0.068367
     30 H3           1.8910    -0.9540     0.3640 hc         1 2QJ       0.068367
     31 H4          -0.4690    -2.0310     1.6190 hn         1 2QJ       0.354500
     32 H5          -0.2280     0.8190     3.7930 ha         1 2QJ       0.182000
     33 H6          -0.8560     0.8280     6.1770 ha         1 2QJ       0.159000
     34 H7          -2.4550    -3.1140     5.7790 ha         1 2QJ       0.167000
     35 H8          -3.1130     1.5450     8.1290 ha         1 2QJ       0.154000
     36 H9          -5.3980     2.4570     8.2790 ha         1 2QJ       0.145000
     37 H10         -7.3410     0.9420     8.1670 ha         1 2QJ       0.149000
     38 H11         -4.7080    -2.3980     7.7460 ha         1 2QJ       0.163000
     39 H12         -0.0700    -1.2280    -1.5220 ho         1 2QJ       0.429000
@<TRIPOS>BOND
     1    18    17 ar  
     2    18    19 ar  
     3    12    11 1   
     4    17    16 ar  
     5    14    13 2   
     6    19    20 ar  
     7    10    11 ar  
     8    10     9 ar  
     9    16    13 1   
    10    16    21 ar  
    11    11     6 ar  
    12    20    21 ar  
    13    20    22 1   
    14    13     9 1   
    15    13    15 2   
    16    25    23 1   
    17     9     8 ar  
    18     6     5 1   
    19     6     7 ar  
    20     5     3 1   
    21    24    23 1   
    22    23    26 1   
    23    23     2 1   
    24    27     2 1   
    25     8     7 ar  
    26     3     2 1   
    27     3     4 2   
    28     2     1 1   
    29     1    28 1   
    30     1    29 1   
    31     1    30 1   
    32     5    31 1   
    33     7    32 1   
    34     8    33 1   
    35    10    34 1   
    36    17    35 1   
    37    18    36 1   
    38    19    37 1   
    39    21    38 1   
    40    27    39 1   
@<TRIPOS>SUBSTRUCTURE
     1 2QJ         1 TEMP              0 ****  ****    0 ROOT
