@<TRIPOS>MOLECULE
molecule
   67    71     1     0     0
SMALL
bcc


@<TRIPOS>ATOM
      1 C01          0.0000     0.0000     0.0000 c3         1 2QK      -0.091100
      2 C02          1.5300     0.0000     0.0000 c3         1 2QK      -0.092400
      3 C03          2.0400     0.0000     1.4430 c3         1 2QK       0.162000
      4 N04          1.6530    -1.2510     2.0980 ns         1 2QK      -0.582900
      5 C05          0.4360    -1.3670     2.6640 c          1 2QK       0.682700
      6 O06         -0.3410    -0.4320     2.6320 o          1 2QK      -0.616100
      7 C07          0.0450    -2.6290     3.3250 ca         1 2QK      -0.198600
      8 C08          0.9420    -3.7060     3.3610 ca         1 2QK      -0.064000
      9 C09          0.5960    -4.8770     3.9660 ca         1 2QK      -0.168000
     10 C10         -0.6600    -5.0170     4.5590 ca         1 2QK      -0.001200
     11 N11         -1.2770    -6.0410     5.2230 na         1 2QK      -0.047100
     12 N12         -2.5580    -5.6360     5.6140 nc         1 2QK      -0.500100
     13 C13         -2.7750    -4.4030     5.2260 cd         1 2QK       0.446500
     14 C14         -4.0130    -3.6200     5.4510 ca         1 2QK      -0.145900
     15 C15         -5.2550    -4.2530     5.4300 ca         1 2QK      -0.062500
     16 C16         -6.4050    -3.5210     5.6390 ca         1 2QK      -0.198000
     17 C17         -6.3270    -2.1540     5.8710 ca         1 2QK       0.156100
     18 O18         -7.4620    -1.4350     6.0710 os         1 2QK      -0.325900
     19 C19         -7.3040    -0.0570     6.4140 c3         1 2QK       0.137100
     20 C20         -8.5420     0.4250     7.1760 c3         1 2QK      -0.088900
     21 C21         -9.7700     0.3090     6.2710 c3         1 2QK       0.165800
     22 N22         -9.5690     1.1210     5.0640 n3         1 2QK      -0.735600
     23 C23        -10.7830     1.1450     4.2370 c3         1 2QK       0.155100
     24 C24         -8.4140     0.6470     4.2910 c3         1 2QK       0.165800
     25 C25         -7.1430     0.7730     5.1380 c3         1 2QK      -0.088900
     26 C26         -5.0920    -1.5200     5.8920 ca         1 2QK      -0.198000
     27 C27         -3.9380    -2.2470     5.6890 ca         1 2QK      -0.062500
     28 C28         -1.5700    -3.9410     4.5300 ca         1 2QK      -0.254900
     29 C29         -1.2090    -2.7440     3.9140 ca         1 2QK       0.014000
     30 C30          3.5420     0.1240     1.4440 ca         1 2QK      -0.084300
     31 C31          4.3290    -1.0100     1.5150 ca         1 2QK      -0.123000
     32 C32          5.7070    -0.8960     1.5170 ca         1 2QK      -0.121000
     33 C33          6.2990     0.3510     1.4480 ca         1 2QK      -0.121000
     34 C34          5.5120     1.4860     1.3790 ca         1 2QK      -0.114000
     35 C35          4.1340     1.3720     1.3700 ca         1 2QK       0.034400
     36 Cl           3.1460     2.7970     1.2730 cl         1 2QK      -0.099400
     37 H1          -0.3610     0.6950     0.7490 hc         1 2QK       0.042367
     38 H2          -0.3610    -0.9960     0.2270 hc         1 2QK       0.042367
     39 H3          -0.3610     0.3010    -0.9760 hc         1 2QK       0.042367
     40 H4           1.8910    -0.8840    -0.5110 hc         1 2QK       0.047200
     41 H5           1.8910     0.8850    -0.5110 hc         1 2QK       0.047200
     42 H6           1.6090     0.8370     1.9780 h1         1 2QK       0.099700
     43 H7           2.2960    -2.0170     2.1320 hn         1 2QK       0.314500
     44 H8           1.9190    -3.6070     2.9030 ha         1 2QK       0.125000
     45 H9           1.2970    -5.7020     3.9880 ha         1 2QK       0.132000
     46 H10         -0.8760    -6.9400     5.4020 hn         1 2QK       0.333700
     47 H11         -5.3170    -5.3190     5.2500 ha         1 2QK       0.144500
     48 H12         -7.3700    -4.0130     5.6230 ha         1 2QK       0.145000
     49 H13         -6.4270     0.0680     7.0380 h1         1 2QK       0.049700
     50 H14         -8.6840    -0.1880     8.0570 hc         1 2QK       0.059950
     51 H15         -8.4050     1.4600     7.4670 hc         1 2QK       0.059950
     52 H16         -9.9120    -0.7270     5.9880 h1         1 2QK       0.041200
     53 H17        -10.6440     0.6660     6.8030 h1         1 2QK       0.041200
     54 H19        -11.0140     0.1390     3.9070 h1         1 2QK       0.031700
     55 H20        -10.6200     1.7790     3.3740 h1         1 2QK       0.031700
     56 H21        -11.6090     1.5330     4.8190 h1         1 2QK       0.031700
     57 H22         -8.3100     1.2470     3.3950 h1         1 2QK       0.041200
     58 H23         -8.5640    -0.3920     4.0210 h1         1 2QK       0.041200
     59 H24         -6.9870     1.8120     5.4010 hc         1 2QK       0.059950
     60 H25         -6.2950     0.4050     4.5730 hc         1 2QK       0.059950
     61 H26         -5.0350    -0.4540     6.0750 ha         1 2QK       0.145000
     62 H27         -2.9750    -1.7520     5.7050 ha         1 2QK       0.144500
     63 H28         -1.9470    -1.9630     3.7740 ha         1 2QK       0.163000
     64 H29          3.8670    -1.9880     1.5690 ha         1 2QK       0.128000
     65 H30          6.3230    -1.7850     1.5720 ha         1 2QK       0.134000
     66 H31          7.3780     0.4400     1.4530 ha         1 2QK       0.138000
     67 H32          5.9750     2.4630     1.3220 ha         1 2QK       0.147000
@<TRIPOS>BOND
     1    23    22 1   
     2    22    24 1   
     3    22    21 1   
     4    24    25 1   
     5    25    19 1   
     6    21    20 1   
     7    20    19 1   
     8    19    18 1   
     9    18    17 1   
    10    17    26 ar  
    11    17    16 ar  
    12    26    27 ar  
    13    16    15 ar  
    14     1     2 1   
    15    27    14 ar  
    16    15    14 ar  
    17    14    13 1   
    18     2     3 1   
    19     3     4 1   
    20     3    30 1   
    21    13    28 1   
    22    13    12 2   
    23     4     5 1   
    24    29    28 ar  
    25    29     7 ar  
    26    28    10 ar  
    27    12    11 1   
    28    30    31 ar  
    29    30    35 ar  
    30     5     7 1   
    31     5     6 2   
    32    31    32 ar  
    33     7     8 ar  
    34    36    35 1   
    35    35    34 ar  
    36    10    11 1   
    37    10     9 ar  
    38    32    33 ar  
    39     8     9 ar  
    40    34    33 ar  
    41     1    37 1   
    42     1    38 1   
    43     1    39 1   
    44     2    40 1   
    45     2    41 1   
    46     3    42 1   
    47     4    43 1   
    48     8    44 1   
    49     9    45 1   
    50    11    46 1   
    51    15    47 1   
    52    16    48 1   
    53    19    49 1   
    54    20    50 1   
    55    20    51 1   
    56    21    52 1   
    57    21    53 1   
    58    23    54 1   
    59    23    55 1   
    60    23    56 1   
    61    24    57 1   
    62    24    58 1   
    63    25    59 1   
    64    25    60 1   
    65    26    61 1   
    66    27    62 1   
    67    29    63 1   
    68    31    64 1   
    69    32    65 1   
    70    33    66 1   
    71    34    67 1   
@<TRIPOS>SUBSTRUCTURE
     1 2QK         1 TEMP              0 ****  ****    0 ROOT
