@<TRIPOS>MOLECULE
molecule
   45    50     1     0     0
SMALL
bcc


@<TRIPOS>ATOM
      1 C14          0.0000     0.0000     0.0000 c3         1 2QL      -0.047100
      2 C13          1.5280     0.0000     0.0000 c3         1 2QL       0.142100
      3 O13          2.0050     1.1770    -0.6580 oh         1 2QL      -0.602800
      4 C12          1.9960     0.0000     1.4570 c3         1 2QL       0.113100
      5 O12          1.3170     1.0180     2.1930 oh         1 2QL      -0.584800
      6 C11          1.6510    -1.3730     2.0290 c3         1 2QL       0.179400
      7 O11          2.4710    -2.3600     1.4030 oh         1 2QL      -0.599800
      8 C16          0.2000    -1.7210     1.8050 ca         1 2QL      -0.076300
      9 C10         -0.3040    -2.7500     2.5780 ca         1 2QL      -0.095000
     10 C17         -1.6350    -3.1440     2.4420 ca         1 2QL      -0.041000
     11 C18         -2.4620    -2.4740     1.5130 ca         1 2QL       0.000000
     12 C9          -2.1400    -4.2060     3.2310 ca         1 2QL      -0.112000
     13 C8          -3.4220    -4.6070     3.1100 ca         1 2QL      -0.118000
     14 C20         -4.2820    -3.9710     2.1840 ca         1 2QL      -0.029000
     15 C21         -3.8000    -2.9110     1.3820 ca         1 2QL      -0.014000
     16 C7          -5.6130    -4.3870     2.0560 ca         1 2QL      -0.117000
     17 C6          -6.4460    -3.7710     1.1480 ca         1 2QL      -0.123000
     18 C5          -5.9830    -2.7390     0.3500 ca         1 2QL      -0.118000
     19 C22         -4.6680    -2.3020     0.4570 ca         1 2QL      -0.018000
     20 C23         -4.1700    -1.1910    -0.3720 ca         1 2QL      -0.026000
     21 C4          -5.0040    -0.6410    -1.3450 ca         1 2QL      -0.121000
     22 C3          -4.5840     0.4380    -2.0890 ca         1 2QL      -0.126000
     23 C2          -3.3410     0.9930    -1.8420 ca         1 2QL      -0.125000
     24 C1          -2.4970     0.4400    -0.8980 ca         1 2QL      -0.143000
     25 C24         -2.8590    -0.6970    -0.1820 ca         1 2QL      -0.013000
     26 C19         -1.9480    -1.4050     0.7400 ca         1 2QL      -0.018000
     27 C15         -0.5960    -1.0670     0.8800 ca         1 2QL      -0.021300
     28 H14         -0.3460    -0.1560    -1.0150 hc         1 2QL       0.077700
     29 H15         -0.3460     0.9670     0.3460 hc         1 2QL       0.077700
     30 H13          1.8950    -0.8860    -0.5040 h1         1 2QL       0.063700
     31 HO13         2.7010     0.9450    -1.2510 ho         1 2QL       0.401000
     32 H12          3.0670     0.1580     1.5000 h1         1 2QL       0.040700
     33 HO12         1.9480     1.5540     2.6450 ho         1 2QL       0.404000
     34 H11          1.8490    -1.3680     3.0940 h1         1 2QL       0.044700
     35 HO11         3.1790    -2.5940     1.9800 ho         1 2QL       0.402000
     36 H10          0.3370    -3.2510     3.2930 ha         1 2QL       0.130000
     37 H9          -1.4890    -4.7030     3.9400 ha         1 2QL       0.131000
     38 H8          -3.7940    -5.4190     3.7230 ha         1 2QL       0.132000
     39 H7          -5.9890    -5.1930     2.6730 ha         1 2QL       0.132000
     40 H6          -7.4740    -4.0990     1.0570 ha         1 2QL       0.130000
     41 H5          -6.6520    -2.2660    -0.3590 ha         1 2QL       0.134000
     42 H4          -5.9760    -1.0800    -1.5340 ha         1 2QL       0.133000
     43 H3          -5.2400     0.8780    -2.8300 ha         1 2QL       0.131000
     44 H2          -3.0080     1.8430    -2.4260 ha         1 2QL       0.131000
     45 H1          -1.5280     0.8920    -0.7220 ha         1 2QL       0.160000
@<TRIPOS>BOND
     1    16    17 ar
     2    16    14 ar
     3    17    18 ar
     4    13    14 ar
     5    13    12 ar
     6    14    15 ar
     7    18    19 ar
     8    12    10 ar
     9    15    19 ar
    10    15    11 ar
    11    19    20 ar
    12    10    11 ar
    13    10     9 ar
    14    11    26 ar
    15    20    21 ar
    16    20    25 ar
    17    21    22 ar
    18     9     8 ar
    19    26    25 ar
    20    26    27 ar
    21    25    24 ar
    22    22    23 ar
    23     8    27 ar
    24     8     6 1
    25    27     1 1
    26    24    23 ar
    27     6     7 1
    28     6     4 1
    29     3     2 1
    30     1     2 1
    31     2     4 1
    32     4     5 1
    33     1    28 1
    34     1    29 1
    35     2    30 1
    36     3    31 1
    37     4    32 1
    38     5    33 1
    39     6    34 1
    40     7    35 1
    41     9    36 1
    42    12    37 1
    43    13    38 1
    44    16    39 1
    45    17    40 1
    46    18    41 1
    47    21    42 1
    48    22    43 1
    49    23    44 1
    50    24    45 1
@<TRIPOS>SUBSTRUCTURE
     1 2QL         1 TEMP              0 ****  ****    0 ROOT
