@<TRIPOS>MOLECULE
2QL
   45    50     1     0     0
SMALL
bcc


@<TRIPOS>ATOM
      1 C14         0.0530   -0.0110    0.0630 c3        1 2QL     -0.075100
      2 C13         1.4790   -0.5140   -0.1480 c3        1 2QL      0.105100
      3 O13         2.1710    0.2800   -1.1030 oh        1 2QL     -0.609800
      4 C12         2.2780   -0.3970    1.1560 c3        1 2QL      0.126100
      5 O12         2.5140    0.9640    1.4860 oh        1 2QL     -0.597800
      6 C11         1.5240   -1.0030    2.3570 c3        1 2QL      0.183400
      7 O11         2.3070   -2.0430    2.9230 oh        1 2QL     -0.587800
      8 C16         0.1220   -1.4630    2.0660 ca        1 2QL     -0.122300
      9 C10        -0.4210   -2.4400    2.8900 ca        1 2QL     -0.101000
     10 C17        -1.7150   -2.9290    2.6560 ca        1 2QL     -0.038000
     11 C18        -2.5050   -2.3450    1.6390 ca        1 2QL     -0.008000
     12 C9         -2.2330   -4.0350    3.4140 ca        1 2QL     -0.112000
     13 C8         -3.4330   -4.5870    3.1060 ca        1 2QL     -0.116000
     14 C20        -4.2210   -4.0780    2.0170 ca        1 2QL     -0.032000
     15 C21        -3.7750   -2.9330    1.3110 ca        1 2QL     -0.015000
     16 C7         -5.4140   -4.7140    1.6320 ca        1 2QL     -0.114000
     17 C6         -6.1420   -4.2320    0.5570 ca        1 2QL     -0.126000
     18 C5         -5.7180   -3.0910   -0.1320 ca        1 2QL     -0.116000
     19 C22        -4.5590   -2.4110    0.2470 ca        1 2QL     -0.018000
     20 C23        -4.1570   -1.1510   -0.3580 ca        1 2QL     -0.018000
     21 C4         -5.0010   -0.4870   -1.2670 ca        1 2QL     -0.121000
     22 C3         -4.7100    0.7920   -1.7160 ca        1 2QL     -0.125000
     23 C2         -3.5830    1.4560   -1.2270 ca        1 2QL     -0.130000
     24 C1         -2.7250    0.8060   -0.3510 ca        1 2QL     -0.125000
     25 C24        -2.9480   -0.5280    0.0400 ca        1 2QL     -0.020000
     26 C19        -2.0080   -1.2340    0.9000 ca        1 2QL     -0.015000
     27 C15        -0.6530   -0.8910    1.0330 ca        1 2QL     -0.044300
     28 H14        -0.4800    0.0030   -0.9240 hc        1 2QL      0.070700
     29 H15         0.1120    1.0420    0.4540 hc        1 2QL      0.070700
     30 H13         1.4690   -1.5850   -0.4940 h1        1 2QL      0.050700
     31 HO13        1.6200    0.3190   -1.8930 ho        1 2QL      0.412000
     32 H12         3.2690   -0.9210    1.0300 h1        1 2QL      0.058700
     33 HO12        2.9200    1.3730    0.7100 ho        1 2QL      0.423000
     34 H11         1.4830   -0.2230    3.1790 h1        1 2QL      0.115700
     35 HO11        2.3150   -2.7760    2.2950 ho        1 2QL      0.399000
     36 H10         0.1810   -2.8550    3.7160 ha        1 2QL      0.152000
     37 H9         -1.6190   -4.4230    4.2410 ha        1 2QL      0.137000
     38 H8         -3.8320   -5.4420    3.6730 ha        1 2QL      0.136000
     39 H7         -5.7570   -5.6010    2.1860 ha        1 2QL      0.136000
     40 H6         -7.0640   -4.7430    0.2400 ha        1 2QL      0.135000
     41 H5         -6.3260   -2.7400   -0.9790 ha        1 2QL      0.134000
     42 H4         -5.9230   -0.9710   -1.6220 ha        1 2QL      0.134000
     43 H3         -5.3780    1.2920   -2.4330 ha        1 2QL      0.135000
     44 H2         -3.3810    2.4950   -1.5260 ha        1 2QL      0.135000
     45 H1         -1.8860    1.3730    0.0790 ha        1 2QL      0.140000
@<TRIPOS>BOND
     1    1    2 1   
     2    1   27 1   
     3    1   28 1   
     4    1   29 1   
     5    2    3 1   
     6    2    4 1   
     7    2   30 1   
     8    3   31 1   
     9    4    5 1   
    10    4    6 1   
    11    4   32 1   
    12    5   33 1   
    13    6    7 1   
    14    6    8 1   
    15    6   34 1   
    16    7   35 1   
    17    8    9 ar  
    18    8   27 ar  
    19    9   10 ar  
    20    9   36 1   
    21   10   11 ar  
    22   10   12 ar  
    23   11   15 ar  
    24   11   26 ar  
    25   12   13 ar  
    26   12   37 1   
    27   13   14 ar  
    28   13   38 1   
    29   14   15 ar  
    30   14   16 ar  
    31   15   19 ar  
    32   16   17 ar  
    33   16   39 1   
    34   17   18 ar  
    35   17   40 1   
    36   18   19 ar  
    37   18   41 1   
    38   19   20 ar  
    39   20   21 ar  
    40   20   25 ar  
    41   21   22 ar  
    42   21   42 1   
    43   22   23 ar  
    44   22   43 1   
    45   23   24 ar  
    46   23   44 1   
    47   24   25 ar  
    48   24   45 1   
    49   25   26 ar  
    50   26   27 ar  
@<TRIPOS>SUBSTRUCTURE
     1 2QL         1 TEMP              0 ****  ****    0 ROOT
