@<TRIPOS>MOLECULE
2QM
   55    56     1     0     0
SMALL
bcc


@<TRIPOS>ATOM
      1 CAO          0.0000     0.0000     0.0000 ca         1 2QM      -0.077000
      2 CAI          1.3820     0.0000     0.0000 ca         1 2QM      -0.148000
      3 CBB          2.0740     0.0000     1.2020 ca         1 2QM       0.066100
      4 OAG          3.4330    -0.0000     1.2040 oh         1 2QM      -0.517100
      5 CAJ          1.3770     0.0000     2.4010 ca         1 2QM      -0.148000
      6 CAP         -0.0040     0.0010     2.3960 ca         1 2QM      -0.077000
      7 CBE         -0.6930     0.0070     1.1970 ca         1 2QM      -0.012300
      8 CBG         -2.1990     0.0080     1.1940 c3         1 2QM      -0.033000
      9 CAY         -2.7000     1.4090     0.9520 c          1 2QM       0.983600
     10 OAF         -3.3930     1.6450    -0.0090 o          1 2QM      -0.895800
     11 OAB         -2.3760     2.3940     1.8050 o          1 2QM      -0.895800
     12 NAW         -2.6860    -0.8750     0.1320 ns         1 2QM      -0.200900
     13 CAZ         -3.9090    -1.4350     0.2280 c          1 2QM       0.600100
     14 OAC         -4.6080    -1.2050     1.1960 o          1 2QM      -0.709100
     15 N           -4.3580    -2.2460    -0.7500 ns         1 2QM      -0.191900
     16 CA          -5.6860    -2.8540    -0.6450 c3         1 2QM      -0.075300
     17 C           -5.5980    -4.1200     0.1680 c          1 2QM       0.978600
     18 O           -4.5330    -4.4780     0.6140 o          1 2QM      -0.904300
     19 OXT         -6.7000    -4.8500     0.3960 o          1 2QM      -0.904300
     20 CB          -6.2080    -3.1830    -2.0450 c3         1 2QM      -0.023400
     21 CAR         -6.4170    -1.8860    -2.8290 c3         1 2QM      -0.036400
     22 CAQ         -6.9390    -2.2140    -4.2290 c3         1 2QM      -0.043400
     23 CAS         -7.1470    -0.9170    -5.0140 c3         1 2QM       0.039000
     24 NAU         -7.6470    -1.2320    -6.3540 ns         1 2QM      -0.181900
     25 CBA         -7.9060    -0.2380    -7.2280 c          1 2QM       0.577700
     26 OAD         -7.7230     0.9190    -6.9030 o          1 2QM      -0.646100
     27 CBD         -8.4100    -0.5560    -8.5800 ca         1 2QM      -0.134600
     28 CAM         -8.6780     0.4710    -9.4870 ca         1 2QM      -0.055500
     29 CAK         -9.1480     0.1680   -10.7480 ca         1 2QM      -0.102500
     30 CBC         -9.3550    -1.1510   -11.1140 ca         1 2QM       0.225900
     31 IAH        -10.0690    -1.6010   -13.0310 i          1 2QM      -0.332900
     32 CAL         -9.0910    -2.1730   -10.2190 ca         1 2QM      -0.102500
     33 CAN         -8.6140    -1.8840    -8.9580 ca         1 2QM      -0.055500
     34 H1          -0.5410     0.0020    -0.9380 ha         1 2QM       0.113500
     35 H2           1.9240    -0.0050    -0.9380 ha         1 2QM       0.091500
     36 H3           3.7480     0.8880     1.2050 ho         1 2QM       0.382000
     37 H4           1.9160    -0.0020     3.3410 ha         1 2QM       0.091500
     38 H5          -0.5480     0.0040     3.3330 ha         1 2QM       0.113500
     39 H6          -2.5620    -0.3450     2.1520 h1         1 2QM       0.065700
     40 H8          -2.1080    -1.0700    -0.6610 hn         1 2QM       0.146500
     41 H9          -3.7650    -2.4690    -1.5250 hn         1 2QM       0.139500
     42 H10         -6.3640    -2.1610    -0.1610 h1         1 2QM       0.061700
     43 H12         -7.1500    -3.7120    -1.9650 hc         1 2QM       0.018700
     44 H13         -5.4870    -3.8050    -2.5620 hc         1 2QM       0.018700
     45 H14         -5.4740    -1.3570    -2.9110 hc         1 2QM       0.026700
     46 H15         -7.1360    -1.2630    -2.3120 hc         1 2QM       0.026700
     47 H16         -7.8820    -2.7420    -4.1480 hc         1 2QM       0.008200
     48 H17         -6.2200    -2.8380    -4.7460 hc         1 2QM       0.008200
     49 H18         -7.8680    -0.2940    -4.4970 h1         1 2QM       0.035200
     50 H19         -6.2050    -0.3880    -5.0950 h1         1 2QM       0.035200
     51 H20         -7.8160    -2.1840    -6.6140 hn         1 2QM       0.172500
     52 H21         -8.5160     1.5030    -9.2010 ha         1 2QM       0.124000
     53 H22         -9.3560     0.9640   -11.4530 ha         1 2QM       0.116000
     54 H23         -9.2530    -3.2040   -10.5130 ha         1 2QM       0.116000
     55 H24         -8.4080    -2.6850    -8.2590 ha         1 2QM       0.124000
@<TRIPOS>BOND
     1     1     2 ar  
     2     1     7 ar  
     3     1    34 1   
     4     2     3 ar  
     5     2    35 1   
     6     3     4 1   
     7     3     5 ar  
     8     4    36 1   
     9     5     6 ar  
    10     5    37 1   
    11     6     7 ar  
    12     6    38 1   
    13     7     8 1   
    14     8     9 1   
    15     8    12 1   
    16     8    39 1   
    17     9    10 1   
    18     9    11 1   
    19    12    13 1   
    20    12    40 1   
    21    13    14 2   
    22    13    15 1   
    23    15    16 1   
    24    15    41 1   
    25    16    17 1   
    26    16    20 1   
    27    16    42 1   
    28    17    18 1   
    29    17    19 1   
    30    20    21 1   
    31    20    43 1   
    32    20    44 1   
    33    21    22 1   
    34    21    45 1   
    35    21    46 1   
    36    22    23 1   
    37    22    47 1   
    38    22    48 1   
    39    23    24 1   
    40    23    49 1   
    41    23    50 1   
    42    24    25 1   
    43    24    51 1   
    44    25    26 2   
    45    25    27 1   
    46    27    28 ar  
    47    27    33 ar  
    48    28    29 ar  
    49    28    52 1   
    50    29    30 ar  
    51    29    53 1   
    52    30    31 1   
    53    30    32 ar  
    54    32    33 ar  
    55    32    54 1   
    56    33    55 1   
@<TRIPOS>SUBSTRUCTURE
     1 2QM         1 TEMP              0 ****  ****    0 ROOT
