@<TRIPOS>MOLECULE
molecule
   56    57     1     0     0
SMALL
bcc


@<TRIPOS>ATOM
      1 CAN          0.0000     0.0000     0.0000 ca         1 2QN      -0.091500
      2 CAL          1.3790     0.0000     0.0000 ca         1 2QN      -0.113000
      3 CBC          2.0750     0.0000     1.1970 ca         1 2QN       0.066900
      4 IAG          4.1700     0.0000     1.1870 i          1 2QN      -0.193900
      5 CAM          1.3910     0.0010     2.4010 ca         1 2QN      -0.113000
      6 CAO          0.0120     0.0020     2.4150 ca         1 2QN      -0.091500
      7 CBE         -0.6950     0.0060     1.2120 ca         1 2QN      -0.115600
      8 CBB         -2.1730     0.0080     1.2190 c          1 2QN       0.657700
      9 OAD         -2.7870     0.0030     0.1690 o          1 2QN      -0.604100
     10 NAV         -2.8410     0.0140     2.3890 ns         1 2QN      -0.571900
     11 CAR         -4.3060     0.0140     2.3970 c3         1 2QN       0.103000
     12 CAP         -4.8090     0.0220     3.8420 c3         1 2QN      -0.102400
     13 CAQ         -6.3380     0.0230     3.8500 c3         1 2QN      -0.084400
     14 CB          -6.8420     0.0300     5.2950 c3         1 2QN      -0.074400
     15 CA          -8.3710     0.0300     5.3030 c3         1 2QN       0.031700
     16 C           -8.8670    -0.0860     6.7210 c          1 2QN       0.885600
     17 OXT         -8.5390    -1.1580     7.4610 o          1 2QN      -0.852800
     18 O           -9.5590     0.7850     7.1920 o          1 2QN      -0.852800
     19 N           -8.8620     1.2800     4.7150 ns         1 2QN      -0.585900
     20 CBA        -10.0870     1.3250     4.1540 c          1 2QN       0.804100
     21 OAC        -10.7840     0.3290     4.1360 o          1 2QN      -0.663100
     22 NAX        -10.5390     2.4750     3.6140 ns         1 2QN      -0.584900
     23 CBG        -11.8690     2.5240     3.0040 c3         1 2QN       0.038700
     24 CAZ        -11.7860     2.0530     1.5750 c          1 2QN       0.886600
     25 OAF        -10.7230     1.7120     1.1130 o          1 2QN      -0.850800
     26 OAB        -12.8920     2.0140     0.8160 o          1 2QN      -0.850800
     27 CAT        -12.3930     3.9610     3.0390 c3         1 2QN      -0.040100
     28 CBD        -12.5940     4.3890     4.4700 ca         1 2QN      -0.003300
     29 CAJ        -13.8050     4.1790     5.1100 ca         1 2QN      -0.238800
     30 CAH        -13.9510     4.5850     6.4230 ca         1 2QN       0.398700
     31 NAU        -12.9570     5.1660     7.0650 nb         1 2QN      -0.725000
     32 CAI        -11.7920     5.3810     6.4880 ca         1 2QN       0.398700
     33 CAK        -11.5680     4.9970     5.1790 ca         1 2QN      -0.238800
     34 H1          -0.5430     0.0020    -0.9370 ha         1 2QN       0.152500
     35 H2           1.9190    -0.0050    -0.9390 ha         1 2QN       0.139000
     36 H3           1.9410    -0.0010     3.3350 ha         1 2QN       0.139000
     37 H4          -0.5210     0.0040     3.3580 ha         1 2QN       0.152500
     38 H5          -2.3370     0.0280     3.2540 hn         1 2QN       0.308500
     39 H6          -4.6700     0.8960     1.8830 h1         1 2QN       0.061200
     40 H7          -4.6700    -0.8730     1.8920 h1         1 2QN       0.061200
     41 H8          -4.4460    -0.8610     4.3560 hc         1 2QN       0.034700
     42 H9          -4.4450     0.9080     4.3470 hc         1 2QN       0.034700
     43 H10         -6.7010     0.9050     3.3370 hc         1 2QN       0.053200
     44 H11         -6.7030    -0.8640     3.3450 hc         1 2QN       0.053200
     45 H12         -6.4780     0.9160     5.7990 hc         1 2QN       0.043200
     46 H13         -6.4790    -0.8530     5.8070 hc         1 2QN       0.043200
     47 H14         -8.7360    -0.8090     4.7230 h1         1 2QN       0.078700
     48 H16         -8.3010     2.1070     4.7590 hn         1 2QN       0.277500
     49 H17         -9.9480     3.2820     3.5910 hn         1 2QN       0.279500
     50 H18        -12.5430     1.8800     3.5570 h1         1 2QN       0.083700
     51 H20        -13.3370     4.0140     2.5110 hc         1 2QN       0.054700
     52 H21        -11.6760     4.6190     2.5630 hc         1 2QN       0.054700
     53 H22        -14.6700     3.8610     4.5410 ha         1 2QN       0.130000
     54 H23        -14.8940     4.4230     6.9320 h4         1 2QN       0.001600
     55 H24        -10.9990     5.8650     7.0460 h4         1 2QN       0.001600
     56 H25        -10.6980     5.5730     4.8880 ha         1 2QN       0.130000
@<TRIPOS>BOND
     1    25    24 1   
     2    30    29 ar  
     3    30    31 ar  
     4    29    28 ar  
     5    31    32 ar  
     6    24    26 1   
     7    24    23 1   
     8    28    27 1   
     9    28    33 ar  
    10    27    23 1   
    11    32    33 ar  
    12    23    22 1   
    13    12    11 1   
    14    12    13 1   
    15    21    20 2   
    16    22    20 1   
    17    11    10 1   
    18    20    19 1   
    19    14    13 1   
    20    14    15 1   
    21    19    15 1   
    22     9     8 2   
    23    10     8 1   
    24    15    16 1   
    25     8     7 1   
    26    16    18 1   
    27    16    17 1   
    28     7     1 ar  
    29     7     6 ar  
    30     1     2 ar  
    31     6     5 ar  
    32     2     3 ar  
    33     5     3 ar  
    34     3     4 1   
    35     1    34 1   
    36     2    35 1   
    37     5    36 1   
    38     6    37 1   
    39    10    38 1   
    40    11    39 1   
    41    11    40 1   
    42    12    41 1   
    43    12    42 1   
    44    13    43 1   
    45    13    44 1   
    46    14    45 1   
    47    14    46 1   
    48    15    47 1   
    49    19    48 1   
    50    22    49 1   
    51    23    50 1   
    52    27    51 1   
    53    27    52 1   
    54    29    53 1   
    55    30    54 1   
    56    32    55 1   
    57    33    56 1   
@<TRIPOS>SUBSTRUCTURE
     1 2QN         1 TEMP              0 ****  ****    0 ROOT
