@<TRIPOS>MOLECULE
2QO
   36    37     1     0     0
SMALL
bcc


@<TRIPOS>ATOM
      1 C01         0.1530    0.9900    0.4640 c2        1 2QO     -0.240000
      2 C02         1.3900    0.5000    0.4270 c2        1 2QO     -0.147200
      3 C03         2.1040   -0.0310    1.6180 c3        1 2QO     -0.005900
      4 C04         2.9030   -1.2500    1.3030 ca        1 2QO     -0.089300
      5 C05         4.0160   -1.1620    0.4590 ca        1 2QO     -0.145000
      6 C06         4.7720   -2.2990    0.1850 ca        1 2QO     -0.137000
      7 C07         4.4260   -3.5270    0.7440 ca        1 2QO     -0.128000
      8 C08         3.3100   -3.6320    1.5880 cp        1 2QO      0.008000
      9 C09         2.9410   -4.9280    2.1530 cp        1 2QO     -0.092000
     10 C10         3.0370   -6.0820    1.3600 ca        1 2QO     -0.108000
     11 C11         2.7110   -7.3530    1.8500 ca        1 2QO     -0.032800
     12 C12         2.8140   -8.4970    0.9610 ce        1 2QO     -0.184200
     13 C13         2.9940   -9.7830    1.2810 cf        1 2QO     -0.144200
     14 C14         3.1780  -10.4240    2.6360 c         1 2QO      0.894800
     15 O15         4.3350  -10.8330    2.9320 o         1 2QO     -0.831800
     16 O16         2.1650  -10.5680    3.3830 o         1 2QO     -0.831800
     17 C17         2.2700   -7.4720    3.1790 ca        1 2QO     -0.070000
     18 C18         2.1610   -6.3460    3.9840 ca        1 2QO     -0.216000
     19 C19         2.4890   -5.0790    3.4770 ca        1 2QO      0.106100
     20 O20         2.3690   -3.9460    4.2630 oh        1 2QO     -0.517100
     21 C21         2.5550   -2.4820    1.8630 ca        1 2QO     -0.103000
     22 H1         -0.4470    1.0230    1.3820 ha        1 2QO      0.106500
     23 H2         -0.3450    1.3870   -0.4300 ha        1 2QO      0.106500
     24 H3          1.9660    0.4650   -0.5130 ha        1 2QO      0.121000
     25 H4          2.8000    0.7700    1.9980 hc        1 2QO      0.051200
     26 H5          1.3750   -0.2530    2.4440 hc        1 2QO      0.051200
     27 H6          4.2920   -0.1940    0.0180 ha        1 2QO      0.117000
     28 H7          5.6500   -2.2270   -0.4730 ha        1 2QO      0.120000
     29 H8          5.0340   -4.4200    0.5320 ha        1 2QO      0.139000
     30 H9          3.3790   -5.9790    0.3180 ha        1 2QO      0.124000
     31 H10         2.7430   -8.2220   -0.1090 ha        1 2QO      0.085000
     32 H12         3.0510  -10.5250    0.4640 ha        1 2QO      0.099000
     33 H15         2.0150   -8.4760    3.5790 ha        1 2QO      0.212000
     34 H16         1.8220   -6.4460    5.0250 ha        1 2QO      0.125000
     35 H17         2.2210   -4.2440    5.1710 ho        1 2QO      0.408000
     36 H18         1.6880   -2.5590    2.5380 ha        1 2QO      0.148000
@<TRIPOS>BOND
     1    1    2 2   
     2    1   22 1   
     3    1   23 1   
     4    2    3 1   
     5    2   24 1   
     6    3    4 1   
     7    3   25 1   
     8    3   26 1   
     9    4    5 ar  
    10    4   21 ar  
    11    5    6 ar  
    12    5   27 1   
    13    6    7 ar  
    14    6   28 1   
    15    7    8 ar  
    16    7   29 1   
    17    8    9 1   
    18    8   21 ar  
    19    9   10 ar  
    20    9   19 ar  
    21   10   11 ar  
    22   10   30 1   
    23   11   12 1   
    24   11   17 ar  
    25   12   13 2   
    26   12   31 1   
    27   13   14 1   
    28   13   32 1   
    29   14   15 1   
    30   14   16 1   
    31   17   18 ar  
    32   17   33 1   
    33   18   19 ar  
    34   18   34 1   
    35   19   20 1   
    36   20   35 1   
    37   21   36 1   
@<TRIPOS>SUBSTRUCTURE
     1 2QO         1 TEMP              0 ****  ****    0 ROOT
