@<TRIPOS>MOLECULE
molecule
   36    37     1     0     0
SMALL
bcc


@<TRIPOS>ATOM
      1 C01          0.0000     0.0000     0.0000 c2         1 2QO      -0.231000
      2 C02          1.3110     0.0000     0.0000 c2         1 2QO      -0.159200
      3 C03          2.0630     0.0000     1.3060 c3         1 2QO      -0.001900
      4 C04          3.0210    -1.1640     1.3330 ca         1 2QO      -0.091300
      5 C05          4.3100    -1.0100     0.8550 ca         1 2QO      -0.137000
      6 C06          5.1930    -2.0740     0.8770 ca         1 2QO      -0.136000
      7 C07          4.7930    -3.2960     1.3760 ca         1 2QO      -0.121000
      8 C08          3.4950    -3.4580     1.8590 cp         1 2QO      -0.012000
      9 C09          3.0590    -4.7700     2.3970 cp         1 2QO      -0.068000
     10 C10          3.2780    -5.9290     1.6650 ca         1 2QO      -0.106000
     11 C11          2.8640    -7.1610     2.1780 ca         1 2QO      -0.028800
     12 C12          3.0930    -8.3930     1.4090 ce         1 2QO      -0.178200
     13 C13          2.6930    -9.5830     1.9060 cf         1 2QO      -0.132200
     14 C14          2.9140   -10.7720     1.1640 c          1 2QO       0.859800
     15 O15          3.4640   -10.7180     0.0810 o          1 2QO      -0.840300
     16 O16          2.5160   -11.9610     1.6600 o          1 2QO      -0.840300
     17 C17          2.2330    -7.2210     3.4270 ca         1 2QO      -0.112000
     18 C18          2.0170    -6.0680     4.1490 ca         1 2QO      -0.190000
     19 C19          2.4310    -4.8420     3.6470 ca         1 2QO       0.090100
     20 O20          2.2210    -3.7110     4.3660 oh         1 2QO      -0.518100
     21 C21          2.6110    -2.3800     1.8400 ca         1 2QO      -0.092000
     22 H1          -0.5420     0.0000    -0.9380 ha         1 2QO       0.109000
     23 H2          -0.5420     0.0000     0.9380 ha         1 2QO       0.109000
     24 H3           1.8530     0.0000    -0.9380 ha         1 2QO       0.124000
     25 H4           2.6170     0.9260     1.4040 hc         1 2QO       0.049700
     26 H5           1.3620    -0.0900     2.1270 hc         1 2QO       0.049700
     27 H6           4.6280    -0.0520     0.4620 ha         1 2QO       0.118000
     28 H7           6.2010    -1.9470     0.5020 ha         1 2QO       0.122000
     29 H8           5.4860    -4.1290     1.3930 ha         1 2QO       0.137000
     30 H9           3.6750    -5.8670     0.6590 ha         1 2QO       0.141000
     31 H10          3.5820    -8.3460     0.4440 ha         1 2QO       0.155000
     32 H12          2.2040    -9.6310     2.8720 ha         1 2QO       0.103000
     33 H15          1.9100    -8.1760     3.8240 ha         1 2QO       0.148000
     34 H16          1.5300    -6.1200     5.1150 ha         1 2QO       0.122000
     35 H17          2.5060    -3.8460     5.2550 ho         1 2QO       0.409000
     36 H18          1.6010    -2.5000     2.2140 ha         1 2QO       0.145000
@<TRIPOS>BOND
     1     1     2 2   
     2     2     3 1   
     3     3     4 1   
     4     4     5 ar  
     5     4    21 ar  
     6     5     6 ar  
     7    21     8 ar  
     8     6     7 ar  
     9     8     7 ar  
    10     8     9 1   
    11    15    14 1   
    12    10     9 ar  
    13    10    11 ar  
    14     9    19 ar  
    15    14    16 1   
    16    14    13 1   
    17    12    11 1   
    18    12    13 2   
    19    11    17 ar  
    20    19    20 1   
    21    19    18 ar  
    22    17    18 ar  
    23     1    22 1   
    24     1    23 1   
    25     2    24 1   
    26     3    25 1   
    27     3    26 1   
    28     5    27 1   
    29     6    28 1   
    30     7    29 1   
    31    10    30 1   
    32    12    31 1   
    33    13    32 1   
    34    17    33 1   
    35    18    34 1   
    36    20    35 1   
    37    21    36 1   
@<TRIPOS>SUBSTRUCTURE
     1 2QO         1 TEMP              0 ****  ****    0 ROOT
