@<TRIPOS>MOLECULE
2QP
   57    58     1     0     0
SMALL
bcc


@<TRIPOS>ATOM
      1 CAM        -4.0210   -2.7670   -0.0040 ca        1 2QP     -0.073500
      2 CAK        -3.2990   -3.9490   -0.1660 ca        1 2QP     -0.105500
      3 CBB        -2.0110   -4.0730    0.3600 ca        1 2QP      0.071900
      4 IAG        -0.9780   -5.7890    0.1100 i         1 2QP     -0.079900
      5 CAL        -1.4440   -3.0090    1.0640 ca        1 2QP     -0.105500
      6 CAN        -2.1560   -1.8240    1.2350 ca        1 2QP     -0.073500
      7 CBC        -3.4460   -1.6950    0.6900 ca        1 2QP     -0.183600
      8 CBA        -4.1330   -0.4180    0.9200 c         1 2QP      0.572700
      9 OAD        -3.9010    0.3820    1.8220 o         1 2QP     -0.453100
     10 NAT        -5.2120   -0.0230   -0.0440 n4        1 2QP     -0.691800
     11 CAQ        -4.9210    1.2880   -0.6890 c3        1 2QP      0.119800
     12 CAO        -6.0500    1.7730   -1.5880 c3        1 2QP     -0.106400
     13 CAP        -7.1930    2.3690   -0.7930 c3        1 2QP     -0.101400
     14 CB         -8.3020    2.9040   -1.6720 c3        1 2QP     -0.105400
     15 CA         -9.2850    1.8710   -2.2570 c3        1 2QP      0.128500
     16 C          -8.6030    1.1710   -3.4250 c         1 2QP      0.663100
     17 OXT        -8.6720   -0.2360   -3.6070 os        1 2QP     -0.455200
     18 O          -7.8950    1.6450   -4.2950 o         1 2QP     -0.407000
     19 N          -9.8770    0.9430   -1.3330 n3        1 2QP     -0.972800
     20 CAZ        -9.7440   -0.9670   -3.2230 c         1 2QP      0.671100
     21 OAC       -10.9070   -0.6940   -3.4770 o         1 2QP     -0.412000
     22 NAV        -9.3270   -2.2640   -2.6180 n4        1 2QP     -0.630800
     23 CBF        -9.2710   -2.1980   -1.1140 c3        1 2QP      0.030500
     24 CAY        -7.9210   -1.5630   -0.6860 c         1 2QP      0.911600
     25 OAF        -6.8840   -1.8300   -1.3630 o         1 2QP     -0.818800
     26 OAB        -7.9210   -0.7630    0.2870 o         1 2QP     -0.818800
     27 CAS        -9.4720   -3.5720   -0.4690 c3        1 2QP     -0.119700
     28 CBD        -8.7280   -4.6780   -1.0820 cc        1 2QP      0.192000
     29 CAJ        -7.7540   -5.5400   -0.6220 cd        1 2QP     -0.196300
     30 CAH        -7.5070   -6.5000   -1.6790 cd        1 2QP     -0.253300
     31 CAI        -8.3440   -6.1670   -2.7220 cc        1 2QP      0.270600
     32 OAW        -9.1120   -5.0490   -2.3870 os        1 2QP     -0.425800
     33 H1         -5.0460   -2.7200   -0.4170 ha        1 2QP      0.171500
     34 H2         -3.7610   -4.7850   -0.7170 ha        1 2QP      0.168000
     35 H3         -0.4320   -3.0950    1.4940 ha        1 2QP      0.168000
     36 H4         -1.7140   -0.9880    1.8020 ha        1 2QP      0.171500
     37 H5         -5.3430   -0.7490   -0.7780 hn        1 2QP      0.495800
     38 H6         -4.7230    2.0400    0.1290 hx        1 2QP      0.099700
     39 H7         -3.9810    1.1650   -1.3000 hx        1 2QP      0.099700
     40 H8         -6.4240    0.9350   -2.2390 hc        1 2QP      0.080700
     41 H9         -5.6180    2.5530   -2.2730 hc        1 2QP      0.080700
     42 H10        -7.5820    1.6140   -0.0590 hc        1 2QP      0.066200
     43 H11        -6.7970    3.2300   -0.1850 hc        1 2QP      0.066200
     44 H12        -7.8580    3.4810   -2.5280 hc        1 2QP      0.079700
     45 H13        -8.9150    3.6240   -1.0630 hc        1 2QP      0.079700
     46 H14       -10.1180    2.4650   -2.7620 h1        1 2QP      0.110700
     47 H16        -9.2910    0.7360   -0.5450 hn        1 2QP      0.403800
     48 H17        -8.3690   -2.5050   -2.9420 hn        1 2QP      0.486300
     49 H18       -10.1150   -1.5330   -0.7630 hx        1 2QP      0.124700
     50 H20        -9.1540   -3.4710    0.6070 hc        1 2QP      0.099700
     51 H21       -10.5700   -3.8230   -0.4810 hc        1 2QP      0.099700
     52 H22        -7.2590   -5.5250    0.3460 ha        1 2QP      0.173000
     53 H23        -6.7980   -7.3240   -1.6330 ha        1 2QP      0.180000
     54 H24        -8.5450   -6.5680   -3.7130 h4        1 2QP      0.067100
     55 HAT2       -6.1230    0.0290    0.4630 hn        1 2QP      0.495800
     56 H25       -10.7830    1.2440   -1.0360 hn        1 2QP      0.403800
     57 HAV2       -9.9820   -3.0010   -2.9100 hn        1 2QP      0.486300
@<TRIPOS>BOND
     1    1    2 ar  
     2    1    7 ar  
     3    1   33 1   
     4    2    3 ar  
     5    2   34 1   
     6    3    4 1   
     7    3    5 ar  
     8    5    6 ar  
     9    5   35 1   
    10    6    7 ar  
    11    6   36 1   
    12    7    8 1   
    13    8    9 2   
    14    8   10 1   
    15   10   11 1   
    16   10   37 1   
    17   10   55 1   
    18   11   12 1   
    19   11   38 1   
    20   11   39 1   
    21   12   13 1   
    22   12   40 1   
    23   12   41 1   
    24   13   14 1   
    25   13   42 1   
    26   13   43 1   
    27   14   15 1   
    28   14   44 1   
    29   14   45 1   
    30   15   16 1   
    31   15   19 1   
    32   15   46 1   
    33   16   17 1   
    34   16   18 2   
    35   17   20 1   
    36   19   47 1   
    37   19   56 1   
    38   20   21 2   
    39   20   22 1   
    40   22   23 1   
    41   22   48 1   
    42   22   57 1   
    43   23   24 1   
    44   23   27 1   
    45   23   49 1   
    46   24   25 1   
    47   24   26 1   
    48   27   28 1   
    49   27   50 1   
    50   27   51 1   
    51   28   29 2   
    52   28   32 1   
    53   29   30 1   
    54   29   52 1   
    55   30   31 2   
    56   30   53 1   
    57   31   32 1   
    58   31   54 1   
@<TRIPOS>SUBSTRUCTURE
     1 2QP         1 TEMP              0 ****  ****    0 ROOT
