@<TRIPOS>MOLECULE
2QQ
   49    50     1     0     0
SMALL
bcc


@<TRIPOS>ATOM
      1 CAL          0.0000     0.0000     0.0000 ca         1 2QQ      -0.052000
      2 CAJ          1.3790     0.0000     0.0000 ca         1 2QQ      -0.106500
      3 CAZ          2.0750     0.0000     1.1970 ca         1 2QQ      -0.057000
      4 IAH          4.1700    -0.0000     1.1860 i          1 2QQ      -0.053000
      5 CAK          1.3920     0.0010     2.4010 ca         1 2QQ      -0.106500
      6 CAM          0.0130     0.0010     2.4150 ca         1 2QQ      -0.052000
      7 CBA         -0.6940     0.0060     1.2110 ca         1 2QQ      -0.114000
      8 CAY         -2.1730     0.0070     1.2190 c2         1 2QQ       0.253000
      9 OAE         -2.7750     0.0030     2.2740 o          1 2QQ      -0.405000
     10 NAS         -2.8530     0.0120     0.0550 ns         1 2QQ       0.062000
     11 CAP         -4.3180     0.0120     0.0620 c3         1 2QQ      -0.297000
     12 CAN         -4.8340     0.0190    -1.3780 c3         1 2QQ      -0.367000
     13 CAO         -6.3640     0.0200    -1.3710 c3         1 2QQ       0.086000
     14 CAR         -6.8810     0.0270    -2.8100 c3         1 2QQ      -0.179000
     15 CBC         -8.4110     0.0270    -2.8030 c3         1 2QQ      -0.085000
     16 CAW         -8.9210     0.1580    -4.2150 c2         1 2QQ       0.404000
     17 OAG         -9.6180    -0.7090    -4.6890 o          1 2QQ      -0.629000
     18 OAC         -8.6000     1.2360    -4.9480 o          1 2QQ      -0.629000
     19 NAU         -8.8970    -1.2280    -2.2230 ns         1 2QQ      -0.015000
     20 CAX        -10.1170    -1.2770    -1.6500 c2         1 2QQ       0.229000
     21 OAD        -10.8130    -0.2820    -1.6160 o          1 2QQ      -0.446000
     22 N          -10.5640    -2.4320    -1.1170 ns         1 2QQ      -0.005000
     23 CA         -11.8880    -2.4850    -0.4940 c3         1 2QQ      -0.132000
     24 C          -11.7900    -2.0290     0.9390 c2         1 2QQ       0.429000
     25 O          -10.7220    -1.6930     1.3930 o          1 2QQ      -0.633500
     26 OXT        -12.8890    -1.9960     1.7100 o          1 2QQ      -0.633500
     27 CB         -12.4130    -3.9230    -0.5370 c3         1 2QQ      -0.081000
     28 CAI        -12.6230    -4.3260    -1.9370 c2         1 2QQ      -0.237000
     29 CAA        -12.7760    -4.6630    -3.0510 c1         1 2QQ      -0.280000
     30 H1          -0.5420    -0.0100    -0.9380 ha         1 2QQ       0.127000
     31 H2           1.9210    -0.0080    -0.9380 ha         1 2QQ       0.115500
     32 H3           1.9410    -0.0000     3.3350 ha         1 2QQ       0.115500
     33 H4          -0.5190    -0.0220     3.3580 ha         1 2QQ       0.127000
     34 H5          -2.5430     0.5900    -0.7020 hn         1 2QQ       0.085000
     35 H6          -4.6800     1.0030    -0.1830 h1         1 2QQ       0.134500
     36 H7          -4.6740    -0.2710     1.0450 h1         1 2QQ       0.134500
     37 H8          -5.9150    -0.0620    -1.3740 hc         1 2QQ       0.077500
     38 H9          -4.4110    -0.8190    -1.9180 hc         1 2QQ       0.077500
     39 H10         -6.7240     0.9740    -1.0050 hc         1 2QQ       0.060000
     40 H11         -6.7230    -0.7730    -0.7250 hc         1 2QQ       0.060000
     41 H12         -7.1420    -0.9820    -3.1050 hc         1 2QQ       0.098500
     42 H13         -6.1100     0.4070    -3.4690 hc         1 2QQ       0.098500
     43 H14         -8.7690     0.8610    -2.2120 h1         1 2QQ       0.086000
     44 H16         -8.2450    -1.9100    -1.8910 hn         1 2QQ       0.050000
     45 H17        -10.3500    -3.3030    -1.5610 hn         1 2QQ       0.049000
     46 H18        -12.5680    -1.8370    -1.0340 h1         1 2QQ       0.088000
     47 H20        -13.2050    -3.9970    -1.2720 DU         1 2QQ       0.242000
     48 H21        -11.6070    -4.5940    -0.8060 hc         1 2QQ       0.112000
     49 H22        -12.9360    -4.9710    -4.0770 ha         1 2QQ       0.192000
@<TRIPOS>BOND
     1     1     2 1   
     2     1     7 1   
     3     1    30 1   
     4     2     3 1   
     5     2    31 1   
     6     3     4 1   
     7     3     5 1   
     8     5     6 1   
     9     5    32 1   
    10     6     7 1   
    11     6    33 1   
    12     7     8 1   
    13     8     9 1   
    14     8    10 1   
    15    10    11 1   
    16    10    34 1   
    17    11    12 1   
    18    11    35 1   
    19    11    36 1   
    20    12    13 1   
    21    12    37 1   
    22    12    38 1   
    23    13    14 1   
    24    13    39 1   
    25    13    40 1   
    26    14    15 1   
    27    14    41 1   
    28    14    42 1   
    29    15    16 1   
    30    15    19 1   
    31    15    43 1   
    32    16    17 1   
    33    16    18 1   
    34    19    20 1   
    35    19    44 1   
    36    20    21 1   
    37    20    22 1   
    38    22    23 1   
    39    22    45 1   
    40    23    24 1   
    41    23    27 1   
    42    23    46 1   
    43    24    25 1   
    44    24    26 1   
    45    27    28 1   
    46    27    47 1   
    47    27    48 1   
    48    28    29 1   
    49    28    47 1   
    50    29    49 1   
@<TRIPOS>SUBSTRUCTURE
     1 2QQ         1 TEMP              0 ****  ****    0 ROOT
