@<TRIPOS>MOLECULE
molecule
   49    49     1     0     0
SMALL
bcc


@<TRIPOS>ATOM
      1 CAL          0.0000     0.0000     0.0000 ca         1 2QQ      -0.088000
      2 CAJ          1.3790     0.0000     0.0000 ca         1 2QQ      -0.117000
      3 CAZ          2.0750     0.0000     1.1970 ca         1 2QQ       0.067900
      4 IAH          4.1700    -0.0000     1.1860 i          1 2QQ      -0.199900
      5 CAK          1.3920     0.0010     2.4010 ca         1 2QQ      -0.117000
      6 CAM          0.0130     0.0010     2.4150 ca         1 2QQ      -0.088000
      7 CBA         -0.6940     0.0060     1.2110 ca         1 2QQ      -0.112600
      8 CAY         -2.1730     0.0070     1.2190 c          1 2QQ       0.651700
      9 OAE         -2.7750     0.0030     2.2740 o          1 2QQ      -0.606100
     10 NAS         -2.8530     0.0120     0.0550 ns         1 2QQ      -0.504900
     11 CAP         -4.3180     0.0120     0.0620 c3         1 2QQ      -0.064000
     12 CAN         -4.8340     0.0190    -1.3780 c3         1 2QQ      -0.398400
     13 CAO         -6.3640     0.0200    -1.3710 c3         1 2QQ      -0.091400
     14 CAR         -6.8810     0.0270    -2.8100 c3         1 2QQ      -0.136400
     15 CBC         -8.4110     0.0270    -2.8030 c3         1 2QQ       0.035700
     16 CAW         -8.9210     0.1580    -4.2150 c          1 2QQ       0.895600
     17 OAG         -9.6180    -0.7090    -4.6890 o          1 2QQ      -0.839800
     18 OAC         -8.6000     1.2360    -4.9480 o          1 2QQ      -0.839800
     19 NAU         -8.8970    -1.2280    -2.2230 ns         1 2QQ      -0.576900
     20 CAX        -10.1170    -1.2770    -1.6500 c          1 2QQ       0.785100
     21 OAD        -10.8130    -0.2820    -1.6160 o          1 2QQ      -0.646100
     22 N          -10.5640    -2.4320    -1.1170 ns         1 2QQ      -0.554900
     23 CA         -11.8880    -2.4850    -0.4940 c3         1 2QQ      -0.005300
     24 C          -11.7900    -2.0290     0.9390 c          1 2QQ       0.919600
     25 O          -10.7220    -1.6930     1.3930 o          1 2QQ      -0.844300
     26 OXT        -12.8890    -1.9960     1.7100 o          1 2QQ      -0.844300
     27 CB         -12.4130    -3.9230    -0.5370 c3         1 2QQ      -0.115300
     28 CAI        -12.6230    -4.3260    -1.9370 c1         1 2QQ      -0.194100
     29 CAA        -12.7760    -4.6630    -3.0510 c1         1 2QQ      -0.241500
     30 H1          -0.5420    -0.0100    -0.9380 ha         1 2QQ       0.157000
     31 H2           1.9210    -0.0080    -0.9380 ha         1 2QQ       0.137500
     32 H3           1.9410    -0.0000     3.3350 ha         1 2QQ       0.137500
     33 H4          -0.5190    -0.0220     3.3580 ha         1 2QQ       0.157000
     34 H5          -2.5430     0.5900    -0.7020 hn         1 2QQ       0.307500
     35 H6          -4.6800     1.0030    -0.1830 h1         1 2QQ       0.093200
     36 H7          -4.6740    -0.2710     1.0450 h1         1 2QQ       0.093200
     37 H8          -5.9150    -0.0620    -1.3740 hc         1 2QQ       0.149700
     38 H9          -4.4110    -0.8190    -1.9180 hc         1 2QQ       0.149700
     39 H10         -6.7240     0.9740    -1.0050 hc         1 2QQ       0.074700
     40 H11         -6.7230    -0.7730    -0.7250 hc         1 2QQ       0.074700
     41 H12         -7.1420    -0.9820    -3.1050 hc         1 2QQ       0.091700
     42 H13         -6.1100     0.4070    -3.4690 hc         1 2QQ       0.091700
     43 H14         -8.7690     0.8610    -2.2120 h1         1 2QQ       0.067700
     44 H16         -8.2450    -1.9100    -1.8910 hn         1 2QQ       0.270500
     45 H17        -10.3500    -3.3030    -1.5610 hn         1 2QQ       0.266500
     46 H18        -12.5680    -1.8370    -1.0340 h1         1 2QQ       0.065700
     47 H20        -13.2050    -3.9970    -1.2720 hc         1 2QQ       0.168200
     48 H21        -11.6070    -4.5940    -0.8060 hc         1 2QQ       0.168200
     49 H22        -12.9360    -4.9710    -4.0770 ha         1 2QQ       0.149500
@<TRIPOS>BOND
     1    25    24 1
     2    24    26 1
     3    24    23 1
     4    29    28 3
     5    28    27 1
     6    27    23 1
     7    23    22 1
     8    21    20 2
     9    12    11 1
    10    12    13 1
    11    11    10 1
    12    22    20 1
    13    20    19 1
    14    14    13 1
    15    14    15 1
    16    19    15 1
    17     9     8 2
    18    10     8 1
    19    15    16 1
    20     8     7 1
    21    16    17 1
    22    16    18 1
    23     7     6 ar
    24     7     1 ar
    25     6     5 ar
    26     1     2 ar
    27     5     3 ar
    28     2     3 ar
    29     3     4 1
    30     1    30 1
    31     2    31 1
    32     5    32 1
    33     6    33 1
    34    10    34 1
    35    11    35 1
    36    11    36 1
    37    12    37 1
    38    12    38 1
    39    13    39 1
    40    13    40 1
    41    14    41 1
    42    14    42 1
    43    15    43 1
    44    19    44 1
    45    22    45 1
    46    23    46 1
    47    27    47 1
    48    27    48 1
    49    29    49 1
@<TRIPOS>SUBSTRUCTURE
     1 2QQ         1 TEMP              0 ****  ****    0 ROOT
