@<TRIPOS>MOLECULE
2QS
   52    53     1     0     0
SMALL
bcc


@<TRIPOS>ATOM
      1 CAP          0.0000     0.0000     0.0000 cx         1 2QS       0.063400
      2 OAU          1.4280     0.0000     0.0000 op         1 2QS      -0.405600
      3 CBB          0.8160     0.0000     1.2940 cx         1 2QS       0.121100
      4 CAQ          0.8650     1.2950     2.1060 c3         1 2QS      -0.013400
      5 CBD          1.6780     1.0670     3.3820 c3         1 2QS      -0.074300
      6 CAW          1.8310     2.3710     4.1210 c          1 2QS       0.979600
      7 OAF          2.4410     3.4110     3.5290 o          1 2QS      -0.903300
      8 OAB          1.4050     2.4810     5.2450 o          1 2QS      -0.903300
      9 NAT          0.9850     0.1000     4.2360 ns         1 2QS      -0.199900
     10 CAX          1.6820    -0.6340     5.1260 c          1 2QS       0.598100
     11 OAC          2.8860    -0.4940     5.2190 o          1 2QS      -0.706100
     12 N            1.0450    -1.5240     5.9120 ns         1 2QS      -0.195900
     13 CA           1.8020    -2.3220     6.8790 c3         1 2QS      -0.074300
     14 C            2.3590    -3.5440     6.1950 c          1 2QS       0.979600
     15 OXT          3.0920    -4.4270     6.8920 o          1 2QS      -0.905300
     16 O            2.1450    -3.7290     5.0200 o          1 2QS      -0.905300
     17 CB           0.8770    -2.7540     8.0200 c3         1 2QS      -0.023400
     18 CAM          0.4100    -1.5180     8.7920 c3         1 2QS      -0.037400
     19 CAL         -0.5150    -1.9490     9.9320 c3         1 2QS      -0.043400
     20 CAN         -0.9820    -0.7140    10.7050 c3         1 2QS       0.039000
     21 NAR         -1.8660    -1.1260    11.7970 ns         1 2QS      -0.180900
     22 CAY         -2.4020    -0.2000    12.6170 c          1 2QS       0.576700
     23 OAD         -2.1510     0.9780    12.4500 o          1 2QS      -0.646100
     24 CBA         -3.2950    -0.6160    13.7180 ca         1 2QS      -0.133600
     25 CAJ         -3.5810    -1.9690    13.9160 ca         1 2QS      -0.056000
     26 CAH         -4.4130    -2.3510    14.9470 ca         1 2QS      -0.102000
     27 CAZ         -4.9680    -1.3960    15.7840 ca         1 2QS       0.225900
     28 IAG         -6.2330    -1.9870    17.3460 i          1 2QS      -0.332900
     29 CAI         -4.6880    -0.0540    15.5930 ca         1 2QS      -0.102000
     30 CAK         -3.8510     0.3400    14.5700 ca         1 2QS      -0.056000
     31 H1          -0.4700     0.9410    -0.2590 h1         1 2QS       0.026700
     32 H2          -0.4700    -0.9410    -0.2590 h1         1 2QS       0.026700
     33 H3           0.8480    -0.9510     1.8120 h1         1 2QS       0.068700
     34 H4           1.3320     2.0750     1.5150 hc         1 2QS       0.031200
     35 H5          -0.1420     1.5950     2.3680 hc         1 2QS       0.031200
     36 H6           2.6570     0.6820     3.1220 h1         1 2QS       0.065700
     37 H8          -0.0090    -0.0020     4.1720 hn         1 2QS       0.137500
     38 H9           0.0540    -1.6410     5.8340 hn         1 2QS       0.137500
     39 H10          2.6160    -1.7290     7.2790 h1         1 2QS       0.060700
     40 H12          0.0170    -3.2710     7.6120 hc         1 2QS       0.018200
     41 H13          1.4130    -3.4160     8.6890 hc         1 2QS       0.018200
     42 H14          1.2690    -1.0000     9.2010 hc         1 2QS       0.026200
     43 H15         -0.1270    -0.8550     8.1240 hc         1 2QS       0.026200
     44 H16         -1.3740    -2.4660     9.5240 hc         1 2QS       0.008700
     45 H17          0.0220    -2.6110    10.6010 hc         1 2QS       0.008700
     46 H18         -1.5180    -0.0510    10.0360 h1         1 2QS       0.035200
     47 H19         -0.1220    -0.1960    11.1120 h1         1 2QS       0.035200
     48 H20         -2.0720    -2.0960    11.9350 hn         1 2QS       0.172500
     49 H21         -3.1480    -2.7160    13.2630 ha         1 2QS       0.124000
     50 H22         -4.6360    -3.4000    15.1020 ha         1 2QS       0.116000
     51 H23         -5.1220     0.6880    16.2520 ha         1 2QS       0.116000
     52 H24         -3.6340     1.3910    14.4210 ha         1 2QS       0.124000
@<TRIPOS>BOND
     1     1     2 1   
     2     1     3 1   
     3     1    31 1   
     4     1    32 1   
     5     2     3 1   
     6     3     4 1   
     7     3    33 1   
     8     4     5 1   
     9     4    34 1   
    10     4    35 1   
    11     5     6 1   
    12     5     9 1   
    13     5    36 1   
    14     6     7 1   
    15     6     8 1   
    16     9    10 1   
    17     9    37 1   
    18    10    11 2   
    19    10    12 1   
    20    12    13 1   
    21    12    38 1   
    22    13    14 1   
    23    13    17 1   
    24    13    39 1   
    25    14    15 1   
    26    14    16 1   
    27    17    18 1   
    28    17    40 1   
    29    17    41 1   
    30    18    19 1   
    31    18    42 1   
    32    18    43 1   
    33    19    20 1   
    34    19    44 1   
    35    19    45 1   
    36    20    21 1   
    37    20    46 1   
    38    20    47 1   
    39    21    22 1   
    40    21    48 1   
    41    22    23 2   
    42    22    24 1   
    43    24    25 ar  
    44    24    30 ar  
    45    25    26 ar  
    46    25    49 1   
    47    26    27 ar  
    48    26    50 1   
    49    27    28 1   
    50    27    29 ar  
    51    29    30 ar  
    52    29    51 1   
    53    30    52 1   
@<TRIPOS>SUBSTRUCTURE
     1 2QS         1 TEMP              0 ****  ****    0 ROOT
