@<TRIPOS>MOLECULE
molecule
   52    53     1     0     0
SMALL
bcc


@<TRIPOS>ATOM
      1 CAP          0.0000     0.0000     0.0000 cx         1 2QS      -0.017600
      2 OAU          1.4280     0.0000     0.0000 op         1 2QS      -0.400600
      3 CBB          0.8160     0.0000     1.2940 cx         1 2QS       0.075100
      4 CAQ          0.8650     1.2950     2.1060 c3         1 2QS      -0.065400
      5 CBD          1.6780     1.0670     3.3820 c3         1 2QS       0.031700
      6 CAW          1.8310     2.3710     4.1210 c          1 2QS       0.887600
      7 OAF          2.4410     3.4110     3.5290 o          1 2QS      -0.852300
      8 OAB          1.4050     2.4810     5.2450 o          1 2QS      -0.852300
      9 NAT          0.9850     0.1000     4.2360 ns         1 2QS      -0.589900
     10 CAX          1.6820    -0.6340     5.1260 c          1 2QS       0.802100
     11 OAC          2.8860    -0.4940     5.2190 o          1 2QS      -0.660100
     12 N            1.0450    -1.5240     5.9120 ns         1 2QS      -0.586900
     13 CA           1.8020    -2.3220     6.8790 c3         1 2QS       0.031700
     14 C            2.3590    -3.5440     6.1950 c          1 2QS       0.887600
     15 OXT          3.0920    -4.4270     6.8920 o          1 2QS      -0.854300
     16 O            2.1450    -3.7290     5.0200 o          1 2QS      -0.854300
     17 CB           0.8770    -2.7540     8.0200 c3         1 2QS      -0.075400
     18 CAM          0.4100    -1.5180     8.7920 c3         1 2QS      -0.084400
     19 CAL         -0.5150    -1.9490     9.9320 c3         1 2QS      -0.102400
     20 CAN         -0.9820    -0.7140    10.7050 c3         1 2QS       0.103000
     21 NAR         -1.8660    -1.1260    11.7970 ns         1 2QS      -0.571900
     22 CAY         -2.4020    -0.2000    12.6170 c          1 2QS       0.657700
     23 OAD         -2.1510     0.9780    12.4500 o          1 2QS      -0.603100
     24 CBA         -3.2950    -0.6160    13.7180 ca         1 2QS      -0.115600
     25 CAJ         -3.5810    -1.9690    13.9160 ca         1 2QS      -0.091500
     26 CAH         -4.4130    -2.3510    14.9470 ca         1 2QS      -0.113000
     27 CAZ         -4.9680    -1.3960    15.7840 ca         1 2QS       0.066900
     28 IAG         -6.2330    -1.9870    17.3460 i          1 2QS      -0.193900
     29 CAI         -4.6880    -0.0540    15.5930 ca         1 2QS      -0.113000
     30 CAK         -3.8510     0.3400    14.5700 ca         1 2QS      -0.091500
     31 H1          -0.4700     0.9410    -0.2590 h1         1 2QS       0.061700
     32 H2          -0.4700    -0.9410    -0.2590 h1         1 2QS       0.061700
     33 H3           0.8480    -0.9510     1.8120 h1         1 2QS       0.107700
     34 H4           1.3320     2.0750     1.5150 hc         1 2QS       0.059700
     35 H5          -0.1420     1.5950     2.3680 hc         1 2QS       0.059700
     36 H6           2.6570     0.6820     3.1220 h1         1 2QS       0.086700
     37 H8          -0.0090    -0.0020     4.1720 hn         1 2QS       0.276500
     38 H9           0.0540    -1.6410     5.8340 hn         1 2QS       0.276500
     39 H10          2.6160    -1.7290     7.2790 h1         1 2QS       0.078700
     40 H12          0.0170    -3.2710     7.6120 hc         1 2QS       0.043200
     41 H13          1.4130    -3.4160     8.6890 hc         1 2QS       0.043200
     42 H14          1.2690    -1.0000     9.2010 hc         1 2QS       0.053700
     43 H15         -0.1270    -0.8550     8.1240 hc         1 2QS       0.053700
     44 H16         -1.3740    -2.4660     9.5240 hc         1 2QS       0.034700
     45 H17          0.0220    -2.6110    10.6010 hc         1 2QS       0.034700
     46 H18         -1.5180    -0.0510    10.0360 h1         1 2QS       0.061700
     47 H19         -0.1220    -0.1960    11.1120 h1         1 2QS       0.061700
     48 H20         -2.0720    -2.0960    11.9350 hn         1 2QS       0.308500
     49 H21         -3.1480    -2.7160    13.2630 ha         1 2QS       0.152500
     50 H22         -4.6360    -3.4000    15.1020 ha         1 2QS       0.139000
     51 H23         -5.1220     0.6880    16.2520 ha         1 2QS       0.139000
     52 H24         -3.6340     1.3910    14.4210 ha         1 2QS       0.152500
@<TRIPOS>BOND
     1     8     6 1   
     2     2     3 1   
     3     2     1 1   
     4     7     6 1   
     5     6     5 1   
     6     3     1 1   
     7     3     4 1   
     8     5     4 1   
     9     5     9 1   
    10    11    10 2   
    11     9    10 1   
    12    10    12 1   
    13    19    20 1   
    14    19    18 1   
    15    17    18 1   
    16    17    13 1   
    17    20    21 1   
    18    12    13 1   
    19    13    14 1   
    20    23    22 2   
    21    21    22 1   
    22    22    24 1   
    23    14    16 1   
    24    14    15 1   
    25    24    30 ar  
    26    24    25 ar  
    27    30    29 ar  
    28    25    26 ar  
    29    29    27 ar  
    30    26    27 ar  
    31    27    28 1   
    32     1    31 1   
    33     1    32 1   
    34     3    33 1   
    35     4    34 1   
    36     4    35 1   
    37     5    36 1   
    38     9    37 1   
    39    12    38 1   
    40    13    39 1   
    41    17    40 1   
    42    17    41 1   
    43    18    42 1   
    44    18    43 1   
    45    19    44 1   
    46    19    45 1   
    47    20    46 1   
    48    20    47 1   
    49    21    48 1   
    50    25    49 1   
    51    26    50 1   
    52    29    51 1   
    53    30    52 1   
@<TRIPOS>SUBSTRUCTURE
     1 2QS         1 TEMP              0 ****  ****    0 ROOT
