@<TRIPOS>MOLECULE
molecule
   47    50     1     0     0
SMALL
bcc


@<TRIPOS>ATOM
      1 C1           0.0000     0.0000     0.0000 ca         1 2QT      -0.088000
      2 C2           1.3610     0.0000     0.0000 ca         1 2QT      -0.180300
      3 C3           2.0600     0.0000     1.2150 ca         1 2QT       0.480600
      4 C4           1.3420    -0.0000     2.4370 ca         1 2QT      -0.327600
      5 C5          -0.0550    -0.0010     2.4190 ca         1 2QT      -0.074000
      6 C6          -0.7200    -0.0010     1.2050 cp         1 2QT      -0.057000
      7 C7          -2.2030    -0.0000     1.1750 cp         1 2QT       0.011000
      8 C8          -2.8780    -0.0050    -0.0430 ca         1 2QT      -0.173000
      9 C9          -4.2640    -0.0060    -0.0650 ca         1 2QT       0.089600
     10 C10         -4.9770    -0.0010     1.1280 ca         1 2QT      -0.170000
     11 C11         -4.3080     0.0040     2.3390 ca         1 2QT       0.154900
     12 C12         -2.9240    -0.0010     2.3680 ca         1 2QT      -0.184000
     13 N14         -4.9440    -0.0110    -1.2880 ns         1 2QT      -0.485100
     14 C15         -6.1060    -0.6830    -1.4090 c          1 2QT       0.657100
     15 O16         -6.6050    -1.2130    -0.4380 o          1 2QT      -0.565100
     16 C17         -6.7870    -0.7760    -2.7510 c3         1 2QT       0.082800
     17 N18         -8.0250    -1.5530    -2.6190 n3         1 2QT      -0.679600
     18 C19         -8.5960    -1.8690    -3.9470 c3         1 2QT       0.142800
     19 C20        -10.1280    -1.8570    -3.7940 c3         1 2QT      -0.087400
     20 C21        -10.3840    -1.4850    -2.3150 c3         1 2QT      -0.087400
     21 C22         -9.0690    -0.7760    -1.9040 c3         1 2QT       0.142800
     22 C23          2.0780    -0.0010     3.6470 ca         1 2QT       0.753200
     23 N24          3.4020    -0.0000     3.5750 nb         1 2QT      -0.835000
     24 C25          4.0310     0.0000     2.4100 ca         1 2QT       0.733900
     25 N26          3.4010     0.0010     1.2580 nb         1 2QT      -0.778000
     26 N27          1.4360     0.0000     4.8660 nv         1 2QT      -0.986500
     27 F13         -5.0060     0.0100     3.4950 f          1 2QT      -0.136900
     28 H1          -0.5340    -0.0000    -0.9420 ha         1 2QT       0.136000
     29 H2           1.9030     0.0000    -0.9380 ha         1 2QT       0.154000
     30 H3          -0.6130    -0.0010     3.3480 ha         1 2QT       0.129000
     31 H4          -2.3200    -0.0100    -0.9720 ha         1 2QT       0.137000
     32 H5          -6.0600     0.0010     1.1090 ha         1 2QT       0.180000
     33 H6          -2.4020     0.0030     3.3170 ha         1 2QT       0.141000
     34 H7          -4.5840     0.5100    -2.0630 hn         1 2QT       0.325500
     35 H8          -7.0210     0.2210    -3.1060 h1         1 2QT       0.053200
     36 H9          -6.1270    -1.2640    -3.4570 h1         1 2QT       0.053200
     37 H11         -8.2650    -2.8510    -4.2650 h1         1 2QT       0.045700
     38 H12         -8.2910    -1.1190    -4.6660 h1         1 2QT       0.045700
     39 H13        -10.5630    -1.1110    -4.4480 hc         1 2QT       0.051200
     40 H14        -10.5340    -2.8380    -4.0090 hc         1 2QT       0.051200
     41 H15        -10.5390    -2.3760    -1.7190 hc         1 2QT       0.051200
     42 H16        -11.2250    -0.8080    -2.2320 hc         1 2QT       0.051200
     43 H17         -9.0720     0.2550    -2.2380 h1         1 2QT       0.045700
     44 H18         -8.9230    -0.8380    -0.8320 h1         1 2QT       0.045700
     45 H19          5.1140     0.0010     2.4060 h5         1 2QT       0.057100
     46 H20          1.9700     0.0000     5.7130 hn         1 2QT       0.447300
     47 H21          0.4360     0.0000     4.9060 hn         1 2QT       0.447300
@<TRIPOS>BOND
     1    19    18 1   
     2    19    20 1   
     3    18    17 1   
     4    20    21 1   
     5    21    17 1   
     6    17    16 1   
     7    16    14 1   
     8    14    13 1   
     9    14    15 2   
    10    13     9 1   
    11     9     8 ar  
    12     9    10 ar  
    13     8     7 ar  
    14     1     2 ar  
    15     1     6 ar  
    16    10    11 ar  
    17     2     3 ar  
    18     7     6 1   
    19     7    12 ar  
    20     6     5 ar  
    21    11    12 ar  
    22    11    27 1   
    23     3    25 ar  
    24     3     4 ar  
    25    25    24 ar  
    26     5     4 ar  
    27     4    22 ar  
    28    24    23 ar  
    29    22    23 ar  
    30    22    26 1   
    31     1    28 1   
    32     2    29 1   
    33     5    30 1   
    34     8    31 1   
    35    10    32 1   
    36    12    33 1   
    37    13    34 1   
    38    16    35 1   
    39    16    36 1   
    40    18    37 1   
    41    18    38 1   
    42    19    39 1   
    43    19    40 1   
    44    20    41 1   
    45    20    42 1   
    46    21    43 1   
    47    21    44 1   
    48    24    45 1   
    49    26    46 1   
    50    26    47 1   
@<TRIPOS>SUBSTRUCTURE
     1 2QT         1 TEMP              0 ****  ****    0 ROOT
