@<TRIPOS>MOLECULE
2QT
   47    50     1     0     0
SMALL
bcc


@<TRIPOS>ATOM
      1 C1           0.0000     0.0000     0.0000 ca         1 2QT      -0.069000
      2 C2           1.3610     0.0000     0.0000 ca         1 2QT      -0.155300
      3 C3           2.0600     0.0000     1.2150 ca         1 2QT       0.446600
      4 C4           1.3420    -0.0000     2.4370 ca         1 2QT      -0.322600
      5 C5          -0.0550    -0.0010     2.4190 ca         1 2QT      -0.057000
      6 C6          -0.7200    -0.0010     1.2050 cp         1 2QT      -0.056000
      7 C7          -2.2030    -0.0000     1.1750 cp         1 2QT       0.019000
      8 C8          -2.8780    -0.0050    -0.0430 ca         1 2QT      -0.150000
      9 C9          -4.2640    -0.0060    -0.0650 ca         1 2QT      -0.053400
     10 C10         -4.9770    -0.0010     1.1280 ca         1 2QT      -0.143000
     11 C11         -4.3080     0.0040     2.3390 ca         1 2QT       0.131900
     12 C12         -2.9240    -0.0010     2.3680 ca         1 2QT      -0.156000
     13 N14         -4.9440    -0.0110    -1.2880 ns         1 2QT      -0.045100
     14 C15         -6.1060    -0.6830    -1.4090 c          1 2QT       0.556100
     15 O16         -6.6050    -1.2130    -0.4380 o          1 2QT      -0.605100
     16 C17         -6.7870    -0.7760    -2.7510 c3         1 2QT       0.085800
     17 N18         -8.0250    -1.5530    -2.6190 n3         1 2QT      -0.508600
     18 C19         -8.5960    -1.8690    -3.9470 c3         1 2QT       0.142800
     19 C20        -10.1280    -1.8570    -3.7940 c3         1 2QT      -0.027900
     20 C21        -10.3840    -1.4850    -2.3150 c3         1 2QT      -0.027900
     21 C22         -9.0690    -0.7760    -1.9040 c3         1 2QT       0.142800
     22 C23          2.0780    -0.0010     3.6470 ca         1 2QT       0.553200
     23 N24          3.4020    -0.0000     3.5750 nb         1 2QT      -0.738000
     24 C25          4.0310     0.0000     2.4100 ca         1 2QT       0.693900
     25 N26          3.4010     0.0010     1.2580 nb         1 2QT      -0.688000
     26 N27          1.4360     0.0000     4.8660 nv         1 2QT      -0.487500
     27 F13         -5.0060     0.0100     3.4950 f          1 2QT      -0.126900
     28 H1          -0.5340    -0.0000    -0.9420 ha         1 2QT       0.109000
     29 H2           1.9030     0.0000    -0.9380 ha         1 2QT       0.122000
     30 H3          -0.6130    -0.0010     3.3480 ha         1 2QT       0.111000
     31 H4          -2.3200    -0.0100    -0.9720 ha         1 2QT       0.119000
     32 H5          -6.0600     0.0010     1.1090 ha         1 2QT       0.161000
     33 H6          -2.4020     0.0030     3.3170 ha         1 2QT       0.122000
     34 H7          -4.5840     0.5100    -2.0630 hn         1 2QT       0.168500
     35 H8          -7.0210     0.2210    -3.1060 h1         1 2QT       0.022200
     36 H9          -6.1270    -1.2640    -3.4570 h1         1 2QT       0.022200
     37 H11         -8.2650    -2.8510    -4.2650 h1         1 2QT       0.016450
     38 H12         -8.2910    -1.1190    -4.6660 h1         1 2QT       0.016450
     39 H13        -10.5630    -1.1110    -4.4480 hc         1 2QT       0.019950
     40 H14        -10.5340    -2.8380    -4.0090 hc         1 2QT       0.019950
     41 H15        -10.5390    -2.3760    -1.7190 hc         1 2QT       0.019950
     42 H16        -11.2250    -0.8080    -2.2320 hc         1 2QT       0.019950
     43 H17         -9.0720     0.2550    -2.2380 h1         1 2QT       0.016450
     44 H18         -8.9230    -0.8380    -0.8320 h1         1 2QT       0.016450
     45 H19          5.1140     0.0010     2.4060 h5         1 2QT      -0.006900
     46 H20          1.9700     0.0000     5.7130 hn         1 2QT       0.275800
     47 H21          0.4360     0.0000     4.9060 hn         1 2QT       0.275800
@<TRIPOS>BOND
     1     1     2 ar  
     2     1     6 ar  
     3     1    28 1   
     4     2     3 ar  
     5     2    29 1   
     6     3     4 ar  
     7     3    25 ar  
     8     4     5 ar  
     9     4    22 ar  
    10     5     6 ar  
    11     5    30 1   
    12     6     7 1   
    13     7     8 ar  
    14     7    12 ar  
    15     8     9 ar  
    16     8    31 1   
    17     9    10 ar  
    18     9    13 1   
    19    10    11 ar  
    20    10    32 1   
    21    11    12 ar  
    22    11    27 1   
    23    12    33 1   
    24    13    14 1   
    25    13    34 1   
    26    14    15 2   
    27    14    16 1   
    28    16    17 1   
    29    16    35 1   
    30    16    36 1   
    31    17    18 1   
    32    17    21 1   
    33    18    19 1   
    34    18    37 1   
    35    18    38 1   
    36    19    20 1   
    37    19    39 1   
    38    19    40 1   
    39    20    21 1   
    40    20    41 1   
    41    20    42 1   
    42    21    43 1   
    43    21    44 1   
    44    22    23 ar  
    45    22    26 1   
    46    23    24 ar  
    47    24    25 ar  
    48    24    45 1   
    49    26    46 1   
    50    26    47 1   
@<TRIPOS>SUBSTRUCTURE
     1 2QT         1 TEMP              0 ****  ****    0 ROOT
