@<TRIPOS>MOLECULE
molecule
   26    28     1     0     0
SMALL
bcc


@<TRIPOS>ATOM
      1 C1           0.0000     0.0000     0.0000 ca         1 2QU      -0.134300
      2 C2           1.3650     0.0000     0.0000 ca         1 2QU      -0.217300
      3 C3           2.0640     0.0000     1.2170 cp         1 2QU       0.471800
      4 N4           1.4310    -0.0020     2.3750 nb         1 2QU      -0.640000
      5 C5           0.1030    -0.0030     2.4310 ca         1 2QU       0.163000
      6 C6          -0.6630    -0.0020     1.2410 ca         1 2QU       0.331300
      7 N7          -2.0000     0.0020     1.3300 nb         1 2QU      -0.730000
      8 C8          -2.5890    -0.0000     2.5020 ca         1 2QU       0.698900
      9 N9          -1.9180    -0.0050     3.6430 nb         1 2QU      -0.762000
     10 C10         -0.5930    -0.0050     3.6690 ca         1 2QU       0.703900
     11 N11          0.0910    -0.0060     4.8660 nv         1 2QU      -1.069500
     12 C12          3.5480     0.0010     1.2010 cp         1 2QU      -0.087500
     13 C13          4.2530     0.0080    -0.0070 ca         1 2QU      -0.263300
     14 C14          5.6320     0.0090     0.0220 ca         1 2QU       0.454200
     15 N15          6.2860     0.0030     1.1680 nb         1 2QU      -0.721000
     16 C16          5.6600    -0.0040     2.3310 ca         1 2QU       0.640500
     17 C17          4.2780     0.0000     2.3910 ca         1 2QU      -0.244300
     18 F18          6.3780    -0.0100     3.4750 f          1 2QU      -0.216200
     19 H1          -0.5570    -0.0000    -0.9290 ha         1 2QU       0.163000
     20 H2           1.9080     0.0020    -0.9380 ha         1 2QU       0.148000
     21 H3          -3.6720    -0.0000     2.5380 h5         1 2QU       0.062100
     22 H4           0.3220    -0.8730     5.3090 hn         1 2QU       0.448800
     23 H5           0.3210     0.8600     5.3110 hn         1 2QU       0.448800
     24 H6           3.7230     0.0130    -0.9520 ha         1 2QU       0.144000
     25 H7           6.1860     0.0140    -0.9090 h4         1 2QU       0.033100
     26 H8           3.7690    -0.0060     3.3480 ha         1 2QU       0.176000
@<TRIPOS>BOND
     1    14    13 ar
     2    14    15 ar
     3    13    12 ar
     4     2     1 ar
     5     2     3 ar
     6    15    16 ar
     7     1     6 ar
     8    12     3 1
     9    12    17 ar
    10     3     4 ar
    11    16    17 ar
    12    16    18 1
    13     6     7 ar
    14     6     5 ar
    15     7     8 ar
    16     4     5 ar
    17     5    10 ar
    18     8     9 ar
    19    10     9 ar
    20    10    11 1
    21     1    19 1
    22     2    20 1
    23     8    21 1
    24    11    22 1
    25    11    23 1
    26    13    24 1
    27    14    25 1
    28    17    26 1
@<TRIPOS>SUBSTRUCTURE
     1 2QU         1 TEMP              0 ****  ****    0 ROOT
