@<TRIPOS>MOLECULE
2QU
   26    28     1     0     0
SMALL
bcc


@<TRIPOS>ATOM
      1 C1           0.0000     0.0000     0.0000 ca         1 2QU      -0.109300
      2 C2           1.3650     0.0000     0.0000 ca         1 2QU      -0.191300
      3 C3           2.0640     0.0000     1.2170 cp         1 2QU       0.423800
      4 N4           1.4310    -0.0020     2.3750 nb         1 2QU      -0.517000
      5 C5           0.1030    -0.0030     2.4310 ca         1 2QU       0.123000
      6 C6          -0.6630    -0.0020     1.2410 ca         1 2QU       0.291300
      7 N7          -2.0000     0.0020     1.3300 nb         1 2QU      -0.614000
      8 C8          -2.5890    -0.0000     2.5020 ca         1 2QU       0.644900
      9 N9          -1.9180    -0.0050     3.6430 nb         1 2QU      -0.642000
     10 C10         -0.5930    -0.0050     3.6690 ca         1 2QU       0.511900
     11 N11          0.0910    -0.0060     4.8660 nv         1 2QU      -0.639500
     12 C12          3.5480     0.0010     1.2010 cp         1 2QU      -0.099500
     13 C13          4.2530     0.0080    -0.0070 ca         1 2QU      -0.232300
     14 C14          5.6320     0.0090     0.0220 ca         1 2QU       0.430200
     15 N15          6.2860     0.0030     1.1680 nb         1 2QU      -0.587000
     16 C16          5.6600    -0.0040     2.3310 ca         1 2QU       0.561500
     17 C17          4.2780     0.0000     2.3910 ca         1 2QU      -0.210300
     18 F18          6.3780    -0.0100     3.4750 f          1 2QU      -0.221200
     19 H1          -0.5570    -0.0000    -0.9290 ha         1 2QU       0.127000
     20 H2           1.9080     0.0020    -0.9380 ha         1 2QU       0.124000
     21 H3          -3.6720    -0.0000     2.5380 h5         1 2QU       0.000100
     22 H4           0.3220    -0.8730     5.3090 hn         1 2QU       0.285800
     23 H5           0.3210     0.8600     5.3110 hn         1 2QU       0.285800
     24 H6           3.7230     0.0130    -0.9520 ha         1 2QU       0.123000
     25 H7           6.1860     0.0140    -0.9090 h4         1 2QU      -0.014900
     26 H8           3.7690    -0.0060     3.3480 ha         1 2QU       0.147000
@<TRIPOS>BOND
     1     1     2 ar  
     2     1     6 ar  
     3     1    19 1   
     4     2     3 ar  
     5     2    20 1   
     6     3     4 ar  
     7     3    12 1   
     8     4     5 ar  
     9     5     6 ar  
    10     5    10 ar  
    11     6     7 ar  
    12     7     8 ar  
    13     8     9 ar  
    14     8    21 1   
    15     9    10 ar  
    16    10    11 1   
    17    11    22 1   
    18    11    23 1   
    19    12    13 ar  
    20    12    17 ar  
    21    13    14 ar  
    22    13    24 1   
    23    14    15 ar  
    24    14    25 1   
    25    15    16 ar  
    26    16    17 ar  
    27    16    18 1   
    28    17    26 1   
@<TRIPOS>SUBSTRUCTURE
     1 2QU         1 TEMP              0 ****  ****    0 ROOT
