@<TRIPOS>MOLECULE
molecule
   28    30     1     0     0
SMALL
bcc


@<TRIPOS>ATOM
      1 Cl7          0.0000     0.0000     0.0000 cl         1 2QV      -0.108400
      2 C1           3.9980     0.0000     0.0000 ca         1 2QV      -0.115000
      3 C2           4.3040     0.0000     1.3460 ca         1 2QV      -0.120000
      4 C3           3.2810    -0.0010     2.2920 cp         1 2QV      -0.022000
      5 C4           1.9530    -0.0000     1.8730 ca         1 2QV      -0.119000
      6 C5           1.6550    -0.0000     0.5240 ca         1 2QV       0.032400
      7 C6           2.6760    -0.0000    -0.4110 ca         1 2QV      -0.121000
      8 C8           3.6060    -0.0020     3.7390 cp         1 2QV      -0.054000
      9 C9           4.9460     0.0030     4.1520 ca         1 2QV      -0.091000
     10 C10          5.2710     0.0020     5.4730 ca         1 2QV      -0.177300
     11 C11          4.2570    -0.0040     6.4410 ca         1 2QV       0.471600
     12 C12          2.9000    -0.0090     6.0340 ca         1 2QV      -0.317600
     13 C13          2.5830    -0.0030     4.6730 ca         1 2QV      -0.079000
     14 C14          1.8990    -0.0160     7.0370 ca         1 2QV       0.748200
     15 N15          2.2850    -0.0160     8.3070 nb         1 2QV      -0.818000
     16 C16          3.5660    -0.0120     8.6390 ca         1 2QV       0.723900
     17 N17          4.5330    -0.0060     7.7540 nb         1 2QV      -0.767000
     18 N18          0.5620    -0.0200     6.7040 nv         1 2QV      -1.009500
     19 H2           5.3390    -0.0000     1.6660 ha         1 2QV       0.138000
     20 H3           1.1530    -0.0010     2.6050 ha         1 2QV       0.142000
     21 H4           2.4390    -0.0000    -1.4680 ha         1 2QV       0.145000
     22 H5           5.7340     0.0140     3.4090 ha         1 2QV       0.138000
     23 H6           6.3110     0.0060     5.7770 ha         1 2QV       0.155000
     24 H7           1.5590    -0.1560     4.3550 ha         1 2QV       0.135000
     25 H8           3.8270    -0.0130     9.6900 h5         1 2QV       0.057100
     26 H9           0.2470     0.4760     5.8940 hn         1 2QV       0.446800
     27 H10         -0.0980    -0.4940     7.2890 hn         1 2QV       0.446800
     28 H1           4.7930     0.0000    -0.7360 ha         1 2QV       0.139000
@<TRIPOS>BOND
     1     2     3 ar  
     2     2     7 ar  
     3     3     4 ar  
     4     7     6 ar  
     5     9    10 ar  
     6     9     8 ar  
     7    10    11 ar  
     8     4     8 1   
     9     4     5 ar  
    10     8    13 ar  
    11     6     5 ar  
    12     6     1 1   
    13    11    17 ar  
    14    11    12 ar  
    15    17    16 ar  
    16    13    12 ar  
    17    12    14 ar  
    18    16    15 ar  
    19    14    15 ar  
    20    14    18 1   
    21     2    28 1   
    22     3    19 1   
    23     5    20 1   
    24     7    21 1   
    25     9    22 1   
    26    10    23 1   
    27    13    24 1   
    28    16    25 1   
    29    18    26 1   
    30    18    27 1   
@<TRIPOS>SUBSTRUCTURE
     1 2QV         1 TEMP              0 ****  ****    0 ROOT
