@<TRIPOS>MOLECULE
2QV
   28    30     1     0     0
SMALL
bcc


@<TRIPOS>ATOM
      1 Cl7          0.0000     0.0000     0.0000 cl         1 2QV      -0.028400
      2 C1           3.9980     0.0000     0.0000 ca         1 2QV      -0.083000
      3 C2           4.3040     0.0000     1.3460 ca         1 2QV      -0.100000
      4 C3           3.2810    -0.0010     2.2920 cp         1 2QV      -0.017000
      5 C4           1.9530    -0.0000     1.8730 ca         1 2QV      -0.104000
      6 C5           1.6550    -0.0000     0.5240 ca         1 2QV      -0.028600
      7 C6           2.6760    -0.0000    -0.4110 ca         1 2QV      -0.100000
      8 C8           3.6060    -0.0020     3.7390 cp         1 2QV      -0.047000
      9 C9           4.9460     0.0030     4.1520 ca         1 2QV      -0.072000
     10 C10          5.2710     0.0020     5.4730 ca         1 2QV      -0.150300
     11 C11          4.2570    -0.0040     6.4410 ca         1 2QV       0.434600
     12 C12          2.9000    -0.0090     6.0340 ca         1 2QV      -0.310600
     13 C13          2.5830    -0.0030     4.6730 ca         1 2QV      -0.064000
     14 C14          1.8990    -0.0160     7.0370 ca         1 2QV       0.550200
     15 N15          2.2850    -0.0160     8.3070 nb         1 2QV      -0.717000
     16 C16          3.5660    -0.0120     8.6390 ca         1 2QV       0.678900
     17 N17          4.5330    -0.0060     7.7540 nb         1 2QV      -0.671000
     18 N18          0.5620    -0.0200     6.7040 nv         1 2QV      -0.522500
     19 H2           5.3390    -0.0000     1.6660 ha         1 2QV       0.115000
     20 H3           1.1530    -0.0010     2.6050 ha         1 2QV       0.119000
     21 H4           2.4390    -0.0000    -1.4680 ha         1 2QV       0.115000
     22 H5           5.7340     0.0140     3.4090 ha         1 2QV       0.112000
     23 H6           6.3110     0.0060     5.7770 ha         1 2QV       0.122000
     24 H7           1.5590    -0.1560     4.3550 ha         1 2QV       0.114000
     25 H8           3.8270    -0.0130     9.6900 h5         1 2QV      -0.005900
     26 H9           0.2470     0.4760     5.8940 hn         1 2QV       0.276300
     27 H10         -0.0980    -0.4940     7.2890 hn         1 2QV       0.276300
     28 H1           4.7930     0.0000    -0.7360 ha         1 2QV       0.107000
@<TRIPOS>BOND
     1     1     6 1   
     2     2     3 ar  
     3     2     7 ar  
     4     2    28 1   
     5     3     4 ar  
     6     3    19 1   
     7     4     5 ar  
     8     4     8 1   
     9     5     6 ar  
    10     5    20 1   
    11     6     7 ar  
    12     7    21 1   
    13     8     9 ar  
    14     8    13 ar  
    15     9    10 ar  
    16     9    22 1   
    17    10    11 ar  
    18    10    23 1   
    19    11    12 ar  
    20    11    17 ar  
    21    12    13 ar  
    22    12    14 ar  
    23    13    24 1   
    24    14    15 ar  
    25    14    18 1   
    26    15    16 ar  
    27    16    17 ar  
    28    16    25 1   
    29    18    26 1   
    30    18    27 1   
@<TRIPOS>SUBSTRUCTURE
     1 2QV         1 TEMP              0 ****  ****    0 ROOT
