@<TRIPOS>MOLECULE
2QW
   59    58     1     0     0
SMALL
bcc


@<TRIPOS>ATOM
      1 O1          0.2960   -0.1310   -0.2540 o         1 2QW     -0.547300
      2 C7          1.3830    2.9550   -1.8480 c3        1 2QW     -0.084100
      3 C6          3.6280    2.4940   -0.8080 c2        1 2QW     -0.090400
      4 C1         -0.5600   -2.8140   -5.6390 c3        1 2QW     -0.095400
      5 N1         -0.7000   -0.7700   -3.2710 n         1 2QW     -0.621000
      6 C5          3.3980    2.8500    0.4570 c2        1 2QW     -0.281000
      7 C3         -2.0190   -6.0720   -7.5880 c3        1 2QW     -0.051000
      8 C2         -1.2450   -3.5560   -6.7590 c3        1 2QW     -0.062300
      9 C12         1.2200    0.2030    0.4900 c2        1 2QW      0.580100
     10 N2          1.5210   -0.4580    1.6980 ne        1 2QW     -0.235400
     11 C13         1.0370   -0.2990    2.8830 ca        1 2QW      0.140400
     12 C19        -0.0820    0.5910    3.2520 ca        1 2QW      0.037500
     13 C18        -0.5380    0.6640    4.5300 ca        1 2QW     -0.208000
     14 C16         0.0530   -0.1120    5.5760 ca        1 2QW      0.242700
     15 C17        -0.4480   -0.0100    6.9450 c3        1 2QW     -0.142800
     16 C15         1.1430   -0.9700    5.2650 ca        1 2QW     -0.208000
     17 C14         1.6340   -1.0720    3.9960 ca        1 2QW      0.037500
     18 C11         4.7010    1.5450   -1.2370 c3        1 2QW     -0.058200
     19 C10         4.6210    1.4400   -2.7570 c3        1 2QW     -0.080400
     20 C9          3.3700    2.1870   -3.2010 c3        1 2QW     -0.083400
     21 C8          2.8840    3.0130   -2.0040 c3        1 2QW     -0.048500
     22 O           0.9400    0.0270   -4.6590 o         1 2QW     -0.608100
     23 C          -0.7860   -1.3020   -5.7070 c3        1 2QW      0.036500
     24 N          -0.2240   -0.7110   -6.9690 n4        1 2QW     -0.834600
     25 SE         -1.4690   -5.2060   -6.1700 ss        1 2QW     -0.237200
     26 H1          1.0360    1.9060   -1.6740 hc        1 2QW      0.031700
     27 H2          0.8900    3.3380   -2.7750 hc        1 2QW      0.031700
     28 H3          1.0540    3.5870   -0.9870 hc        1 2QW      0.031700
     29 H6          4.0150    2.4820    1.2870 ha        1 2QW      0.118000
     30 H7         -0.2680   -0.3660   -2.4660 hn        1 2QW      0.347500
     31 H8         -2.9890   -5.6850   -7.9720 h1        1 2QW      0.083700
     32 H9         -1.2700   -6.0570   -8.4110 h1        1 2QW      0.083700
     33 H10        -2.1610   -7.1280   -7.2500 h1        1 2QW      0.083700
     34 H11        -2.2350   -3.0980   -7.0080 h1        1 2QW      0.062700
     35 H12        -0.6280   -3.5610   -7.6920 h1        1 2QW      0.062700
     36 H13         2.0030    0.9790    0.2320 h5        1 2QW      0.133200
     37 H14        -0.5480    1.1950    2.4500 ha        1 2QW      0.195000
     38 H15        -1.3830    1.3310    4.7890 ha        1 2QW      0.200000
     39 H16        -1.5340    0.2690    6.9770 hc        1 2QW      0.122367
     40 H17        -0.2910   -0.9600    7.5220 hc        1 2QW      0.122367
     41 H18         0.1230    0.8040    7.4840 hc        1 2QW      0.122367
     42 H19         1.5970   -1.5630    6.0830 ha        1 2QW      0.200000
     43 H20         2.4880   -1.7420    3.7660 ha        1 2QW      0.195000
     44 H21         2.6300    3.5850    0.7290 ha        1 2QW      0.118000
     45 H22         5.7060    1.9230   -0.9150 hc        1 2QW      0.058700
     46 H23         4.5520    0.5440   -0.7580 hc        1 2QW      0.058700
     47 H24         5.5320    1.8950   -3.2220 hc        1 2QW      0.053200
     48 H25         4.5820    0.3700   -3.0790 hc        1 2QW      0.053200
     49 H26         3.5930    2.8560   -4.0680 hc        1 2QW      0.052200
     50 H27         2.5780    1.4660   -3.5290 hc        1 2QW      0.052200
     51 H28         3.1850    4.0900   -2.1540 hc        1 2QW      0.082700
     52 H29        -1.8970   -1.0830   -5.7100 hx        1 2QW      0.125700
     53 H30        -0.6640    0.1930   -7.1600 hn        1 2QW      0.473467
     54 H31         0.7910   -0.5570   -6.8430 hn        1 2QW      0.473467
     55 H4          0.5400   -3.0450   -5.6330 hc        1 2QW      0.104200
     56 H121       -1.5150   -1.3190   -3.1490 hn        1 2QW      0.347500
     57 HN3        -0.3840   -1.3510   -7.7530 hn        1 2QW      0.473467
     58 C4         -0.1110   -0.6260   -4.4820 c         1 2QW      0.646100
     59 H5         -0.9750   -3.1680   -4.6520 hc        1 2QW      0.104200
@<TRIPOS>BOND
     1    1    9 1
     2    2   21 1
     3    2   26 1
     4    2   27 1
     5    2   28 1
     6    3    6 2
     7    3   18 1
     8    3   21 1
     9    4    8 1
    10    4   23 1
    11    4   55 1
    12    4   59 1
    13    5   30 1
    14    5   56 1
    15    5   58 1
    16    6   29 1
    17    6   44 1
    18    7   25 1
    19    7   31 1
    20    7   32 1
    21    7   33 1
    22    8   25 1
    23    8   34 1
    24    8   35 1
    25    9   10 2
    26    9   36 1
    27   10   11 1
    28   11   12 ar
    29   11   17 ar
    30   12   13 ar
    31   12   37 1
    32   13   14 ar
    33   13   38 1
    34   14   15 1
    35   14   16 ar
    36   15   39 1
    37   15   40 1
    38   15   41 1
    39   16   17 ar
    40   16   42 1
    41   17   43 1
    42   18   19 1
    43   18   45 1
    44   18   46 1
    45   19   20 1
    46   19   47 1
    47   19   48 1
    48   20   21 1
    49   20   49 1
    50   20   50 1
    51   21   51 1
    52   22   58 2
    53   23   24 1
    54   23   52 1
    55   23   58 1
    56   24   53 1
    57   24   54 1
    58   24   57 1
@<TRIPOS>SUBSTRUCTURE
     1 2QW         1 TEMP              0 ****  ****    0 ROOT
