@<TRIPOS>MOLECULE
2QX
  109   114     1     0     0
SMALL
bcc


@<TRIPOS>ATOM
      1 O1           0.0000     0.0000     0.0000 o          1 2QX      -0.649500
      2 C7          -8.6770    12.6810    -3.1970 ca         1 2QX      -0.229600
      3 O2          -7.1060     8.6820     1.4130 o          1 2QX      -0.667000
      4 C6          -9.9410    13.2040    -2.9390 ca         1 2QX       0.414200
      5 C1         -10.2680    15.0340    -7.2570 ca         1 2QX      -0.093000
      6 C5         -10.0960    14.1000    -5.0610 ca         1 2QX       0.372600
      7 C4          -8.8130    13.5950    -5.3890 ca         1 2QX      -0.135300
      8 C3          -8.2820    13.8280    -6.6690 ca         1 2QX      -0.087000
      9 C2          -9.0050    14.5370    -7.5780 ca         1 2QX      -0.093000
     10 C42         -7.8110     9.6710     1.4310 c          1 2QX       0.681100
     11 O3          -8.2110    10.1920     2.6060 os         1 2QX      -0.425900
     12 C43         -7.7620     9.5200     3.8120 c3         1 2QX       0.288700
     13 C41         -7.7570     9.6810    -1.0050 c3         1 2QX       0.065000
     14 C10         -8.4160    10.4460    -2.1530 c3         1 2QX      -0.007400
     15 C9          -7.9500    11.9030    -2.1300 c3         1 2QX       0.034900
     16 C8          -8.0970    12.8670    -4.4200 ca         1 2QX      -0.054000
     17 N          -10.6050    13.8810    -3.8450 nb         1 2QX      -0.558000
     18 C          -10.8120    14.8270    -6.0280 ca         1 2QX      -0.136300
     19 C11         -8.0280     9.8160    -3.4670 ca         1 2QX      -0.112300
     20 C16         -6.6970     9.7460    -3.8320 ca         1 2QX      -0.079000
     21 C15         -6.3400     9.1680    -5.0360 ca         1 2QX      -0.099300
     22 C14         -7.3140     8.6590    -5.8750 ca         1 2QX      -0.072000
     23 C13         -8.6450     8.7270    -5.5120 ca         1 2QX      -0.122000
     24 C12         -9.0040     9.3010    -4.3040 ca         1 2QX       0.115900
     25 F          -10.3050     9.3680    -3.9460 f          1 2QX      -0.123900
     26 C17         -4.8890     9.0930    -5.4350 c3         1 2QX       0.031900
     27 C18         -4.2850     7.7850    -4.9200 c3         1 2QX      -0.027400
     28 C19         -2.8120     7.7090    -5.3240 c3         1 2QX      -0.029400
     29 C20         -2.2080     6.4000    -4.8100 c3         1 2QX      -0.026400
     30 C22         -0.1410     5.0350    -4.7060 ca         1 2QX      -0.082300
     31 C27         -0.1780     3.9010    -5.4970 ca         1 2QX      -0.077500
     32 C26          0.3660     2.7190    -5.0350 ca         1 2QX      -0.105000
     33 C25          0.9490     2.6690    -3.7750 ca         1 2QX      -0.118400
     34 C24          0.9850     3.8100    -2.9840 ca         1 2QX      -0.105000
     35 C23          0.4450     4.9920    -3.4540 ca         1 2QX      -0.077500
     36 C28          1.4510     1.1790    -1.9900 c          1 2QX       0.554100
     37 O            0.8420     1.9010    -1.2300 o          1 2QX      -0.632100
     38 C29          2.1530    -0.0470    -1.4640 c3         1 2QX      -0.050300
     39 C30          1.4000    -1.2990    -1.9180 c3         1 2QX      -0.112700
     40 C35          2.0790    -2.5400    -1.3350 c3         1 2QX      -0.041900
     41 C34          1.3250    -3.7930    -1.7880 c3         1 2QX      -0.019400
     42 C33          1.3420    -3.8730    -3.3160 c3         1 2QX      -0.014400
     43 C32          0.6640    -2.6310    -3.8990 c3         1 2QX      -0.019400
     44 C31          1.4160    -1.3780    -3.4450 c3         1 2QX      -0.041900
     45 N2           2.1860     0.0000     0.0000 n          1 2QX      -0.048800
     46 C40          3.4890     0.0000     0.6540 c3         1 2QX       0.031000
     47 C39          3.3670     0.5170     2.0880 c3         1 2QX      -0.024400
     48 C38          2.2420    -0.2500     2.7930 c3         1 2QX      -0.042400
     49 C37          0.9110     0.1390     2.1440 c3         1 2QX      -0.137500
     50 N3          -0.1450    -0.7680     2.6160 nz         1 2QX      -0.016600
     51 C36          1.0230     0.0450     0.6500 c          1 2QX       0.601500
     52 H1         -10.3880    13.0490    -1.9640 h4         1 2QX      -0.022900
     53 H2         -10.8240    15.5950    -7.9980 ha         1 2QX       0.106000
     54 H3           1.9890     0.8660    -3.9330 hn         1 2QX       0.183500
     55 H4          -7.3020    13.4470    -6.9300 ha         1 2QX       0.106000
     56 H5          -8.5950    14.7160    -8.5640 ha         1 2QX       0.103000
     57 H6          -8.1230     8.4990     3.8120 h1         1 2QX      -0.000967
     58 H7          -6.6790     9.5200     3.8430 h1         1 2QX      -0.000967
     59 H8          -8.1490    10.0400     4.6800 h1         1 2QX      -0.000967
     60 H9          -8.7930    11.0470     0.2870 hn         1 2QX       0.182500
     61 H10         -6.6800     9.7630    -1.0880 h1         1 2QX       0.030700
     62 H11         -8.0440     8.6370    -1.0540 h1         1 2QX       0.030700
     63 H12         -9.4930    10.4090    -2.0400 hc         1 2QX       0.053700
     64 H13         -6.8830    11.9440    -2.3160 hc         1 2QX       0.024700
     65 H14         -8.1630    12.3350    -1.1590 hc         1 2QX       0.024700
     66 H15         -7.1240    12.4040    -4.5230 ha         1 2QX       0.118000
     67 H16        -11.7940    15.2200    -5.7950 ha         1 2QX       0.119000
     68 H17         -5.9340    10.1450    -3.1760 ha         1 2QX       0.117000
     69 H18         -7.0340     8.2080    -6.8200 ha         1 2QX       0.111000
     70 H19         -9.4080     8.3260    -6.1690 ha         1 2QX       0.123000
     71 H20         -4.8090     9.1270    -6.5150 hc         1 2QX       0.020200
     72 H21         -4.3520     9.9310    -5.0070 hc         1 2QX       0.020200
     73 H22         -4.8210     6.9460    -5.3480 hc         1 2QX       0.019200
     74 H23         -4.3650     7.7510    -3.8400 hc         1 2QX       0.019200
     75 H24         -2.7320     7.7430    -6.4040 hc         1 2QX       0.016200
     76 H25         -2.2760     8.5470    -4.8950 hc         1 2QX       0.016200
     77 H26         -2.2880     6.3660    -3.7300 hc         1 2QX       0.018700
     78 H27         -2.7440     5.5620    -5.2390 hc         1 2QX       0.018700
     79 H28         -0.1990     7.1620    -4.7850 hc         1 2QX       0.022200
     80 H29         -0.6550     6.3580    -6.2940 hc         1 2QX       0.022200
     81 H30         -0.6330     3.9400    -6.4790 ha         1 2QX       0.112500
     82 H31          0.3370     1.8300    -5.6540 ha         1 2QX       0.116500
     83 H32          1.4440     3.7760    -2.0040 ha         1 2QX       0.116500
     84 H33          0.4720     5.8820    -2.8380 ha         1 2QX       0.112500
     85 H34          3.1660    -0.0750    -1.8480 h1         1 2QX       0.059700
     86 H35          0.3740    -1.2550    -1.5710 hc         1 2QX       0.076700
     87 H36          2.0850    -2.4800    -0.2530 hc         1 2QX       0.016450
     88 H37          3.0110    -2.1660    -1.7390 hc         1 2QX       0.016450
     89 H38          0.4370    -3.2300    -1.5290 hc         1 2QX       0.027450
     90 H39          1.5030    -4.6980    -1.2200 hc         1 2QX       0.027450
     91 H40          0.8070    -4.7590    -3.6360 hc         1 2QX       0.023700
     92 H41          2.3680    -3.9190    -3.6630 hc         1 2QX       0.023700
     93 H42         -0.3600    -2.5830    -3.5480 hc         1 2QX       0.027450
     94 H43          0.6780    -2.6880    -4.9800 hc         1 2QX       0.027450
     95 H44          0.9330    -0.5000    -3.8560 hc         1 2QX       0.016450
     96 H45          2.4410    -1.4290    -3.7920 hc         1 2QX       0.016450
     97 H46          4.1650     0.6400     0.1010 h1         1 2QX       0.041200
     98 H47          3.8780    -1.0110     0.6720 h1         1 2QX       0.041200
     99 H48          4.3010     0.3540     2.6120 hc         1 2QX       0.049700
    100 H49          3.1310     1.5740     2.0730 hc         1 2QX       0.049700
    101 H50          2.4040    -1.3160     2.6820 hc         1 2QX       0.039700
    102 H51          2.2260     0.0140     3.8440 hc         1 2QX       0.039700
    103 H52          0.6650     1.1570     2.4200 hx         1 2QX       0.115700
    104 H53          0.1270    -1.3680     3.3700 hn         1 2QX       0.261800
    105 H54         -0.7040    -1.1710     1.8900 hn         1 2QX       0.261800
    106 H331        -0.4240     0.1510     2.8960 hn         1 2QX       0.261800
    107 N1           1.5010     1.4720    -3.3040 ns         1 2QX      -0.021100
    108 C21         -0.7350     6.3240    -5.2140 c3         1 2QX       0.026900
    109 N4          -8.1920    10.2470     0.2730 ns         1 2QX      -0.180900
@<TRIPOS>BOND
     1     1    51 2   
     2     2     4 ar  
     3     2    15 1   
     4     2    16 ar  
     5     3    10 2   
     6     4    17 ar  
     7     4    52 1   
     8     5     9 ar  
     9     5    18 ar  
    10     5    53 1   
    11     6     7 ar  
    12     6    17 ar  
    13     6    18 ar  
    14     7     8 ar  
    15     7    16 ar  
    16     8     9 ar  
    17     8    55 1   
    18     9    56 1   
    19    10    11 1   
    20    10   109 1   
    21    11    12 1   
    22    12    57 1   
    23    12    58 1   
    24    12    59 1   
    25    13    14 1   
    26    13    61 1   
    27    13    62 1   
    28    13   109 1   
    29    14    15 1   
    30    14    19 1   
    31    14    63 1   
    32    15    64 1   
    33    15    65 1   
    34    16    66 1   
    35    18    67 1   
    36    19    20 ar  
    37    19    24 ar  
    38    20    21 ar  
    39    20    68 1   
    40    21    22 ar  
    41    21    26 1   
    42    22    23 ar  
    43    22    69 1   
    44    23    24 ar  
    45    23    70 1   
    46    24    25 1   
    47    26    27 1   
    48    26    71 1   
    49    26    72 1   
    50    27    28 1   
    51    27    73 1   
    52    27    74 1   
    53    28    29 1   
    54    28    75 1   
    55    28    76 1   
    56    29    77 1   
    57    29    78 1   
    58    29   108 1   
    59    30    31 ar  
    60    30    35 ar  
    61    30   108 1   
    62    31    32 ar  
    63    31    81 1   
    64    32    33 ar  
    65    32    82 1   
    66    33    34 ar  
    67    33   107 1   
    68    34    35 ar  
    69    34    83 1   
    70    35    84 1   
    71    36    37 2   
    72    36    38 1   
    73    36   107 1   
    74    38    39 1   
    75    38    45 1   
    76    38    85 1   
    77    39    40 1   
    78    39    44 1   
    79    39    86 1   
    80    40    41 1   
    81    40    87 1   
    82    40    88 1   
    83    41    42 1   
    84    41    89 1   
    85    41    90 1   
    86    42    43 1   
    87    42    91 1   
    88    42    92 1   
    89    43    44 1   
    90    43    93 1   
    91    43    94 1   
    92    44    95 1   
    93    44    96 1   
    94    45    46 1   
    95    45    51 1   
    96    46    47 1   
    97    46    97 1   
    98    46    98 1   
    99    47    48 1   
   100    47    99 1   
   101    47   100 1   
   102    48    49 1   
   103    48   101 1   
   104    48   102 1   
   105    49    50 1   
   106    49    51 1   
   107    49   103 1   
   108    50   104 1   
   109    50   105 1   
   110    50   106 1   
   111    54   107 1   
   112    60   109 1   
   113    79   108 1   
   114    80   108 1   
@<TRIPOS>SUBSTRUCTURE
     1 2QX         1 TEMP              0 ****  ****    0 ROOT
