@<TRIPOS>MOLECULE
molecule
  109   114     1     0     0
SMALL
bcc


@<TRIPOS>ATOM
      1 O1           0.0000     0.0000     0.0000 o          1 2QX      -0.608500
      2 C7          -8.6770    12.6810    -3.1970 ca         1 2QX      -0.226600
      3 O2          -7.1060     8.6820     1.4130 o          1 2QX      -0.619000
      4 C6          -9.9410    13.2040    -2.9390 ca         1 2QX       0.435200
      5 C1         -10.2680    15.0340    -7.2570 ca         1 2QX      -0.118000
      6 C5         -10.0960    14.1000    -5.0610 ca         1 2QX       0.418600
      7 C4          -8.8130    13.5950    -5.3890 ca         1 2QX      -0.144300
      8 C3          -8.2820    13.8280    -6.6690 ca         1 2QX      -0.112000
      9 C2          -9.0050    14.5370    -7.5780 ca         1 2QX      -0.124000
     10 C42         -7.8110     9.6710     1.4310 c          1 2QX       0.750100
     11 O3          -8.2110    10.1920     2.6060 os         1 2QX      -0.439900
     12 C43         -7.7620     9.5200     3.8120 c3         1 2QX       0.160700
     13 C41         -7.7570     9.6810    -1.0050 c3         1 2QX       0.138000
     14 C10         -8.4160    10.4460    -2.1530 c3         1 2QX      -0.040400
     15 C9          -7.9500    11.9030    -2.1300 c3         1 2QX      -0.026100
     16 C8          -8.0970    12.8670    -4.4200 ca         1 2QX      -0.071000
     17 N          -10.6050    13.8810    -3.8450 nb         1 2QX      -0.673000
     18 C          -10.8120    14.8270    -6.0280 ca         1 2QX      -0.161300
     19 C11         -8.0280     9.8160    -3.4670 ca         1 2QX      -0.116300
     20 C16         -6.6970     9.7460    -3.8320 ca         1 2QX      -0.104000
     21 C15         -6.3400     9.1680    -5.0360 ca         1 2QX      -0.097300
     22 C14         -7.3140     8.6590    -5.8750 ca         1 2QX      -0.099000
     23 C13         -8.6450     8.7270    -5.5120 ca         1 2QX      -0.157000
     24 C12         -9.0040     9.3010    -4.3040 ca         1 2QX       0.142900
     25 F          -10.3050     9.3680    -3.9460 f          1 2QX      -0.133900
     26 C17         -4.8890     9.0930    -5.4350 c3         1 2QX      -0.034100
     27 C18         -4.2850     7.7850    -4.9200 c3         1 2QX      -0.077400
     28 C19         -2.8120     7.7090    -5.3240 c3         1 2QX      -0.084400
     29 C20         -2.2080     6.4000    -4.8100 c3         1 2QX      -0.077400
     30 C22         -0.1410     5.0350    -4.7060 ca         1 2QX      -0.081300
     31 C27         -0.1780     3.9010    -5.4970 ca         1 2QX      -0.107000
     32 C26          0.3660     2.7190    -5.0350 ca         1 2QX      -0.135500
     33 C25          0.9490     2.6690    -3.7750 ca         1 2QX       0.032600
     34 C24          0.9850     3.8100    -2.9840 ca         1 2QX      -0.135500
     35 C23          0.4450     4.9920    -3.4540 ca         1 2QX      -0.107000
     36 C28          1.4510     1.1790    -1.9900 c          1 2QX       0.655100
     37 O            0.8420     1.9010    -1.2300 o          1 2QX      -0.587100
     38 C29          2.1530    -0.0470    -1.4640 c3         1 2QX       0.043700
     39 C30          1.4000    -1.2990    -1.9180 c3         1 2QX      -0.115700
     40 C35          2.0790    -2.5400    -1.3350 c3         1 2QX      -0.088400
     41 C34          1.3250    -3.7930    -1.7880 c3         1 2QX      -0.073900
     42 C33          1.3420    -3.8730    -3.3160 c3         1 2QX      -0.073400
     43 C32          0.6640    -2.6310    -3.8990 c3         1 2QX      -0.073900
     44 C31          1.4160    -1.3780    -3.4450 c3         1 2QX      -0.088400
     45 N2           2.1860     0.0000     0.0000 n          1 2QX      -0.433800
     46 C40          3.4890     0.0000     0.6540 c3         1 2QX       0.094000
     47 C39          3.3670     0.5170     2.0880 c3         1 2QX      -0.090400
     48 C38          2.2420    -0.2500     2.7930 c3         1 2QX      -0.113400
     49 C37          0.9110     0.1390     2.1440 c3         1 2QX       0.013500
     50 N3          -0.1450    -0.7680     2.6160 nz         1 2QX      -0.854600
     51 C36          1.0230     0.0450     0.6500 c          1 2QX       0.690500
     52 H1         -10.3880    13.0490    -1.9640 h4         1 2QX       0.019100
     53 H2         -10.8240    15.5950    -7.9980 ha         1 2QX       0.135000
     54 H3           1.9890     0.8660    -3.9330 hn         1 2QX       0.332500
     55 H4          -7.3020    13.4470    -6.9300 ha         1 2QX       0.132000
     56 H5          -8.5950    14.7160    -8.5640 ha         1 2QX       0.132000
     57 H6          -8.1230     8.4990     3.8120 h1         1 2QX       0.048700
     58 H7          -6.6790     9.5200     3.8430 h1         1 2QX       0.048700
     59 H8          -8.1490    10.0400     4.6800 h1         1 2QX       0.048700
     60 H9          -8.7930    11.0470     0.2870 hn         1 2QX       0.325500
     61 H10         -6.6800     9.7630    -1.0880 h1         1 2QX       0.057700
     62 H11         -8.0440     8.6370    -1.0540 h1         1 2QX       0.057700
     63 H12         -9.4930    10.4090    -2.0400 hc         1 2QX       0.080700
     64 H13         -6.8830    11.9440    -2.3160 hc         1 2QX       0.053200
     65 H14         -8.1630    12.3350    -1.1590 hc         1 2QX       0.053200
     66 H15         -7.1240    12.4040    -4.5230 ha         1 2QX       0.142000
     67 H16        -11.7940    15.2200    -5.7950 ha         1 2QX       0.151000
     68 H17         -5.9340    10.1450    -3.1760 ha         1 2QX       0.138000
     69 H18         -7.0340     8.2080    -6.8200 ha         1 2QX       0.139000
     70 H19         -9.4080     8.3260    -6.1690 ha         1 2QX       0.150000
     71 H20         -4.8090     9.1270    -6.5150 hc         1 2QX       0.050200
     72 H21         -4.3520     9.9310    -5.0070 hc         1 2QX       0.050200
     73 H22         -4.8210     6.9460    -5.3480 hc         1 2QX       0.046700
     74 H23         -4.3650     7.7510    -3.8400 hc         1 2QX       0.046700
     75 H24         -2.7320     7.7430    -6.4040 hc         1 2QX       0.043200
     76 H25         -2.2760     8.5470    -4.8950 hc         1 2QX       0.043200
     77 H26         -2.2880     6.3660    -3.7300 hc         1 2QX       0.046700
     78 H27         -2.7440     5.5620    -5.2390 hc         1 2QX       0.046700
     79 H28         -0.1990     7.1620    -4.7850 hc         1 2QX       0.052200
     80 H29         -0.6550     6.3580    -6.2940 hc         1 2QX       0.052200
     81 H30         -0.6330     3.9400    -6.4790 ha         1 2QX       0.140000
     82 H31          0.3370     1.8300    -5.6540 ha         1 2QX       0.139000
     83 H32          1.4440     3.7760    -2.0040 ha         1 2QX       0.139000
     84 H33          0.4720     5.8820    -2.8380 ha         1 2QX       0.140000
     85 H34          3.1660    -0.0750    -1.8480 h1         1 2QX       0.088700
     86 H35          0.3740    -1.2550    -1.5710 hc         1 2QX       0.087700
     87 H36          2.0850    -2.4800    -0.2530 hc         1 2QX       0.041200
     88 H37          3.0110    -2.1660    -1.7390 hc         1 2QX       0.041200
     89 H38          0.4370    -3.2300    -1.5290 hc         1 2QX       0.055700
     90 H39          1.5030    -4.6980    -1.2200 hc         1 2QX       0.055700
     91 H40          0.8070    -4.7590    -3.6360 hc         1 2QX       0.053700
     92 H41          2.3680    -3.9190    -3.6630 hc         1 2QX       0.053700
     93 H42         -0.3600    -2.5830    -3.5480 hc         1 2QX       0.055700
     94 H43          0.6780    -2.6880    -4.9800 hc         1 2QX       0.055700
     95 H44          0.9330    -0.5000    -3.8560 hc         1 2QX       0.041200
     96 H45          2.4410    -1.4290    -3.7920 hc         1 2QX       0.041200
     97 H46          4.1650     0.6400     0.1010 h1         1 2QX       0.071700
     98 H47          3.8780    -1.0110     0.6720 h1         1 2QX       0.071700
     99 H48          4.3010     0.3540     2.6120 hc         1 2QX       0.084700
    100 H49          3.1310     1.5740     2.0730 hc         1 2QX       0.084700
    101 H50          2.4040    -1.3160     2.6820 hc         1 2QX       0.073700
    102 H51          2.2260     0.0140     3.8440 hc         1 2QX       0.073700
    103 H52          0.6650     1.1570     2.4200 hx         1 2QX       0.140700
    104 H53          0.1270    -1.3680     3.3700 hn         1 2QX       0.485467
    105 H54         -0.7040    -1.1710     1.8900 hn         1 2QX       0.485467
    106 H331        -0.4240     0.1510     2.8960 hn         1 2QX       0.485467
    107 N1           1.5010     1.4720    -3.3040 ns         1 2QX      -0.467100
    108 C21         -0.7350     6.3240    -5.2140 c3         1 2QX      -0.038100
    109 N4          -8.1920    10.2470     0.2730 ns         1 2QX      -0.575900
@<TRIPOS>BOND
     1    48    47 1
     2    48    49 1
     3    47    46 1
     4    50    49 1
     5    49    51 1
     6    46    45 1
     7    51    45 1
     8    51     1 2
     9    45    38 1
    10    40    41 1
    11    40    39 1
    12    41    42 1
    13    38    39 1
    14    38    36 1
    15    37    36 2
    16    39    44 1
    17    36   107 1
    18    42    43 1
    19    44    43 1
    20   107    33 1
    21    34    33 ar
    22    34    35 ar
    23    33    32 ar
    24    35    30 ar
    25    32    31 ar
    26    23    22 ar
    27    23    24 ar
    28    22    21 ar
    29    30    31 ar
    30    30   108 1
    31    29   108 1
    32    29    28 1
    33    25    24 1
    34    24    19 ar
    35    21    26 1
    36    21    20 ar
    37    26    27 1
    38    27    28 1
    39    20    19 ar
    40    19    14 1
    41    15    14 1
    42    15     2 1
    43    14    13 1
    44   109    13 1
    45   109    10 1
    46    11    10 1
    47    11    12 1
    48    10     3 2
    49     2     4 ar
    50     2    16 ar
    51     4    17 ar
    52    16     7 ar
    53    17     6 ar
    54     7     6 ar
    55     7     8 ar
    56     6    18 ar
    57     8     9 ar
    58    18     5 ar
    59     9     5 ar
    60     4    52 1
    61     5    53 1
    62   107    54 1
    63     8    55 1
    64     9    56 1
    65    12    57 1
    66    12    58 1
    67    12    59 1
    68   109    60 1
    69    13    61 1
    70    13    62 1
    71    14    63 1
    72    15    64 1
    73    15    65 1
    74    16    66 1
    75    18    67 1
    76    20    68 1
    77    22    69 1
    78    23    70 1
    79    26    71 1
    80    26    72 1
    81    27    73 1
    82    27    74 1
    83    28    75 1
    84    28    76 1
    85    29    77 1
    86    29    78 1
    87   108    79 1
    88   108    80 1
    89    31    81 1
    90    32    82 1
    91    34    83 1
    92    35    84 1
    93    38    85 1
    94    39    86 1
    95    40    87 1
    96    40    88 1
    97    41    89 1
    98    41    90 1
    99    42    91 1
   100    42    92 1
   101    43    93 1
   102    43    94 1
   103    44    95 1
   104    44    96 1
   105    46    97 1
   106    46    98 1
   107    47    99 1
   108    47   100 1
   109    48   101 1
   110    48   102 1
   111    49   103 1
   112    50   104 1
   113    50   105 1
   114   106    50 1
@<TRIPOS>SUBSTRUCTURE
     1 2QX         1 TEMP              0 ****  ****    0 ROOT
