@<TRIPOS>MOLECULE
molecule
   48    50     1     0     0
SMALL
bcc


@<TRIPOS>ATOM
      1 FAF          0.0000     0.0000     0.0000 f          1 2R2      -0.215633
      2 CAD          1.3980     0.0000     0.0000 c3         1 2R2       0.683200
      3 FAG          1.8650     0.0000     1.3180 f          1 2R2      -0.215633
      4 FAE          1.8640    -1.1430    -0.6600 f          1 2R2      -0.215633
      5 CAC          1.9010     1.2290    -0.7110 ca         1 2R2      -0.187300
      6 CAH          2.6830     2.1190    -0.0420 ca         1 2R2       0.011000
      7 CAB          1.5640     1.4370    -2.0430 ca         1 2R2       0.027700
      8 CAA          0.7020     0.4350    -2.7660 c3         1 2R2      -0.080800
      9 CAZ          2.0170     2.5560    -2.7010 ca         1 2R2      -0.105200
     10 NBA          1.6570     2.7760    -4.1210 no         1 2R2       0.284200
     11 OBB          0.6450     3.3930    -4.4040 o          1 2R2      -0.179500
     12 OBC          2.3720     2.3400    -5.0050 o          1 2R2      -0.179500
     13 CAY          2.8160     3.4850    -2.0340 ca         1 2R2      -0.038100
     14 CAI          3.1650     3.2800    -0.6900 ca         1 2R2       0.104400
     15 NAJ          3.9300     4.2550    -0.1980 nc         1 2R2      -0.562100
     16 SAX          3.5480     4.9940    -2.5710 ss         1 2R2       0.059900
     17 CAK          4.2470     5.2330    -0.9770 cd         1 2R2       0.371200
     18 CAL          5.0860     6.3860    -0.5860 c          1 2R2       0.610800
     19 OAW          5.2130     7.3290    -1.3420 o          1 2R2      -0.595100
     20 NAM          5.7080     6.3930     0.6100 n          1 2R2      -0.459800
     21 CAV          5.6910     5.2050     1.4770 c3         1 2R2       0.094500
     22 CAU          7.1300     4.8850     1.8920 c3         1 2R2       0.143300
     23 NAP          7.7420     6.0800     2.4890 n3         1 2R2      -0.718600
     24 CAO          7.8320     7.1750     1.5140 c3         1 2R2       0.143300
     25 CAN          6.4270     7.5880     1.0810 c3         1 2R2       0.094500
     26 CAQ          9.0610     5.7690     3.0560 c3         1 2R2       0.164800
     27 CAR          9.5550     6.9590     3.8810 c3         1 2R2       0.138400
     28 OAS          8.6940     7.1500     5.0060 os         1 2R2      -0.412600
     29 CAT          9.0710     8.2430     5.8460 c3         1 2R2       0.126700
     30 H1           2.9380     1.9360     0.9950 ha         1 2R2       0.174000
     31 H2           1.2010    -0.5260    -2.7820 hc         1 2R2       0.073700
     32 H3          -0.2480     0.3400    -2.2540 hc         1 2R2       0.073700
     33 H4           0.5320     0.7710    -3.7820 hc         1 2R2       0.073700
     34 H5           5.2740     4.3650     0.9340 h1         1 2R2       0.078950
     35 H6           5.0950     5.4080     2.3580 h1         1 2R2       0.078950
     36 H7           7.6990     4.5870     1.0200 h1         1 2R2       0.042700
     37 H8           7.1250     4.0820     2.6190 h1         1 2R2       0.042700
     38 H10          8.3930     6.8420     0.6490 h1         1 2R2       0.042700
     39 H11          8.3310     8.0220     1.9700 h1         1 2R2       0.042700
     40 H12          5.8990     8.0190     1.9230 h1         1 2R2       0.078950
     41 H13          6.4930     8.3110     0.2760 h1         1 2R2       0.078950
     42 H14          9.7610     5.5700     2.2530 h1         1 2R2       0.045200
     43 H15          8.9840     4.8960     3.6920 h1         1 2R2       0.045200
     44 H16          9.5500     7.8520     3.2660 h1         1 2R2       0.024200
     45 H17         10.5640     6.7650     4.2260 h1         1 2R2       0.024200
     46 H18          9.9970     8.0060     6.3540 h1         1 2R2       0.029033
     47 H19          8.2920     8.4200     6.5790 h1         1 2R2       0.029033
     48 H20          9.2070     9.1320     5.2420 h1         1 2R2       0.029033
@<TRIPOS>BOND
     1    25    24 1
     2    25    20 1
     3    28    27 1
     4    28    29 1
     5    26    27 1
     6    26    23 1
     7    24    23 1
     8    20    21 1
     9    20    18 1
    10    19    18 2
    11    21    22 1
    12    23    22 1
    13    18    17 1
    14    16    17 1
    15    16    13 1
    16    17    15 2
    17    12    10 1
    18    10    11 1
    19    10     9 1
    20    15    14 1
    21    13     9 ar
    22    13    14 ar
    23     9     7 ar
    24    14     6 ar
    25     7     5 ar
    26     7     8 1
    27     6     5 ar
    28     5     2 1
    29     2     3 1
    30     2     1 1
    31     2     4 1
    32     6    30 1
    33     8    31 1
    34     8    32 1
    35     8    33 1
    36    21    34 1
    37    21    35 1
    38    22    36 1
    39    22    37 1
    40    24    38 1
    41    24    39 1
    42    25    40 1
    43    25    41 1
    44    26    42 1
    45    26    43 1
    46    27    44 1
    47    27    45 1
    48    29    46 1
    49    29    47 1
    50    29    48 1
@<TRIPOS>SUBSTRUCTURE
     1 2R2         1 TEMP              0 ****  ****    0 ROOT
