@<TRIPOS>MOLECULE
2R4
   49    54     1     0     0
SMALL
bcc


@<TRIPOS>ATOM
      1 O01          0.0000     0.0000     0.0000 o          1 2R4      -0.603100
      2 C02          1.2200     0.0000     0.0000 c          1 2R4       0.663900
      3 C03          1.9880     0.0000     1.2630 ca         1 2R4      -0.234600
      4 C04          3.3860    -0.0010     1.1940 ca         1 2R4       0.183100
      5 C05          4.1310    -0.0010     2.3810 cp         1 2R4      -0.088000
      6 C06          5.6130    -0.0020     2.3310 cp         1 2R4       0.015000
      7 C07          6.3200    -1.0940     2.8100 ca         1 2R4      -0.082000
      8 C08          7.7040    -1.0960     2.7630 ca         1 2R4      -0.102000
      9 C09          8.3830    -0.0200     2.2440 ca         1 2R4      -0.066000
     10 C10          7.6840     1.1010     1.7520 cp         1 2R4      -0.048000
     11 C11          6.2990     1.1060     1.7900 ca         1 2R4       0.053900
     12 S12          5.6650     2.5990     1.1150 ss         1 2R4      -0.202800
     13 C13          7.2660     3.2310     0.7650 ca         1 2R4       0.036900
     14 C14          8.2450     2.3320     1.1650 cp         1 2R4      -0.049000
     15 C15          9.6010     2.6590     0.9670 ca         1 2R4      -0.065000
     16 C16          9.9490     3.8610     0.4020 ca         1 2R4      -0.100000
     17 C17          8.9690     4.7640     0.0200 ca         1 2R4      -0.090000
     18 C18          7.6390     4.4490     0.1830 ca         1 2R4      -0.058000
     19 C19          3.4730     0.0000     3.6060 ca         1 2R4      -0.032000
     20 C20          2.0900     0.0010     3.6610 ca         1 2R4      -0.147000
     21 C21          1.3450     0.0010     2.5010 ca         1 2R4       0.002000
     22 O22          3.9990    -0.0020    -0.0070 os         1 2R4      -0.185200
     23 C23          3.3150    -0.0030    -1.1590 cc         1 2R4       0.278100
     24 N24          4.0110    -0.0100    -2.3400 nh         1 2R4      -0.368400
     25 C25          3.4730     0.6480    -3.5420 c3         1 2R4       0.137800
     26 C26          4.5570     1.5670    -4.1160 c3         1 2R4       0.192900
     27 O27          5.7640     0.8220    -4.2880 os         1 2R4      -0.402600
     28 C28          6.3140     0.3090    -3.0720 c3         1 2R4       0.192900
     29 C29          5.3240    -0.6700    -2.4420 c3         1 2R4       0.137800
     30 C30          1.9530    -0.0070    -1.2020 cd         1 2R4      -0.449200
     31 H071         5.7910    -1.9450     3.2210 ha         1 2R4       0.114000
     32 H081         8.2540    -1.9500     3.1390 ha         1 2R4       0.107000
     33 H091         9.4660    -0.0330     2.2130 ha         1 2R4       0.106000
     34 H151        10.3720     1.9590     1.2640 ha         1 2R4       0.106000
     35 H161        10.9950     4.1130     0.2710 ha         1 2R4       0.106000
     36 H171         9.2490     5.7100    -0.4260 ha         1 2R4       0.107000
     37 H181         6.8770     5.1580    -0.1170 ha         1 2R4       0.112000
     38 H191         4.0470     0.0000     4.5250 ha         1 2R4       0.110000
     39 H201         1.5900     0.0010     4.6220 ha         1 2R4       0.111000
     40 H211         0.2630     0.0010     2.5500 ha         1 2R4       0.126000
     41 H252         2.6020     1.2340    -3.2760 h1         1 2R4       0.036450
     42 H251         3.2050    -0.1020    -4.2770 h1         1 2R4       0.036450
     43 H261         4.7340     2.3880    -3.4320 h1         1 2R4       0.018950
     44 H262         4.2310     1.9530    -5.0750 h1         1 2R4       0.018950
     45 H282         7.2430    -0.2050    -3.2860 h1         1 2R4       0.018950
     46 H281         6.4970     1.1280    -2.3870 h1         1 2R4       0.018950
     47 H291         5.6680    -0.9470    -1.4530 h1         1 2R4       0.036450
     48 H292         5.2390    -1.5520    -3.0650 h1         1 2R4       0.036450
     49 H301         1.4380    -0.0080    -2.1550 ha         1 2R4       0.152000
@<TRIPOS>BOND
     1     1     2 2   
     2     2     3 1   
     3     2    30 1   
     4     3     4 ar  
     5     3    21 ar  
     6     4     5 ar  
     7     4    22 1   
     8     5     6 1   
     9     5    19 ar  
    10     6     7 ar  
    11     6    11 ar  
    12     7     8 ar  
    13     7    31 1   
    14     8     9 ar  
    15     8    32 1   
    16     9    10 ar  
    17     9    33 1   
    18    10    11 ar  
    19    10    14 1   
    20    11    12 1   
    21    12    13 1   
    22    13    14 ar  
    23    13    18 ar  
    24    14    15 ar  
    25    15    16 ar  
    26    15    34 1   
    27    16    17 ar  
    28    16    35 1   
    29    17    18 ar  
    30    17    36 1   
    31    18    37 1   
    32    19    20 ar  
    33    19    38 1   
    34    20    21 ar  
    35    20    39 1   
    36    21    40 1   
    37    22    23 1   
    38    23    24 1   
    39    23    30 2   
    40    24    25 1   
    41    24    29 1   
    42    25    26 1   
    43    25    41 1   
    44    25    42 1   
    45    26    27 1   
    46    26    43 1   
    47    26    44 1   
    48    27    28 1   
    49    28    29 1   
    50    28    45 1   
    51    28    46 1   
    52    29    47 1   
    53    29    48 1   
    54    30    49 1   
@<TRIPOS>SUBSTRUCTURE
     1 2R4         1 TEMP              0 ****  ****    0 ROOT
