@<TRIPOS>MOLECULE
molecule
   69    72     1     0     0
SMALL
bcc


@<TRIPOS>ATOM
      1 C01          0.0000     0.0000     0.0000 c3         1 2R5      -0.028800
      2 C02          1.5070     0.0000     0.0000 ca         1 2R5      -0.444900
      3 C03          2.2210     0.0000     1.2010 ca         1 2R5       0.760200
      4 N04          1.5550     0.0050     2.4170 nu         1 2R5      -0.766300
      5 C05          2.2760     0.1240     3.6080 ca         1 2R5       0.136600
      6 C06          3.4330     0.8910     3.6480 ca         1 2R5      -0.076000
      7 C07          4.1420     1.0080     4.8270 ca         1 2R5      -0.139000
      8 C08          3.7000     0.3620     5.9680 ca         1 2R5      -0.053000
      9 C09          2.5490    -0.4030     5.9310 ca         1 2R5      -0.290500
     10 C10          1.8320    -0.5180     4.7560 ca         1 2R5      -0.069000
     11 S11          1.9920    -1.2240     7.3870 sy         1 2R5       1.428200
     12 O12          1.4780    -2.4800     6.9670 o          1 2R5      -0.638800
     13 O13          3.0320    -1.0920     8.3460 o          1 2R5      -0.638800
     14 N14          0.7040    -0.3640     7.9730 n7         1 2R5      -0.909100
     15 C15          0.9020     0.9960     8.4830 c3         1 2R5       0.245200
     16 C16          1.6130     1.8390     7.4220 c3         1 2R5      -0.107100
     17 C17         -0.4560     1.6220     8.8060 c3         1 2R5      -0.107100
     18 C18          1.7570     0.9460     9.7510 c3         1 2R5      -0.107100
     19 N19          3.5500    -0.0050     1.1600 nb         1 2R5      -0.854000
     20 C20          4.1900    -0.0110    -0.0000 ca         1 2R5       0.967900
     21 N21          5.5750    -0.0170    -0.0070 nu         1 2R5      -0.755300
     22 C22          6.2680    -0.1570    -1.2160 ca         1 2R5       0.125600
     23 C23          7.4330     0.5670    -1.4370 ca         1 2R5      -0.101500
     24 C24          8.1160     0.4290    -2.6280 ca         1 2R5      -0.173000
     25 C25          7.6380    -0.4330    -3.6050 ca         1 2R5       0.125100
     26 O26          8.3090    -0.5650    -4.7810 os         1 2R5      -0.334900
     27 C27          9.5000     0.2100    -4.9390 c3         1 2R5       0.116400
     28 C28         10.1110    -0.0690    -6.3140 c3         1 2R5       0.045300
     29 N29         11.3310     0.7250    -6.4760 na         1 2R5      -0.058100
     30 C30         12.5890     0.3280    -6.1310 cc         1 2R5      -0.161300
     31 C31         13.4440     1.3270    -6.4310 cc         1 2R5      -0.203500
     32 C32         12.6860     2.3790    -6.9810 cc         1 2R5      -0.203500
     33 C33         11.3970     1.9810    -7.0030 cd         1 2R5      -0.161300
     34 C34          6.4750    -1.1570    -3.3860 ca         1 2R5      -0.173000
     35 C35          5.7940    -1.0230    -2.1920 ca         1 2R5      -0.101500
     36 N36          3.5380    -0.0110    -1.1530 nb         1 2R5      -0.817000
     37 C37          2.2130    -0.0060    -1.1870 ca         1 2R5       0.526200
     38 H1          -0.3610     0.8940     0.4930 hc         1 2R5       0.039700
     39 H2          -0.3610    -0.0200    -1.0210 hc         1 2R5       0.039700
     40 H3          -0.3610    -0.8740     0.5280 hc         1 2R5       0.039700
     41 H4           0.5560    -0.0550     2.4400 hn         1 2R5       0.463800
     42 H5           3.7800     1.3980     2.7550 ha         1 2R5       0.162000
     43 H6           5.0450     1.6060     4.8590 ha         1 2R5       0.138000
     44 H7           4.2590     0.4530     6.8910 ha         1 2R5       0.155000
     45 H8           0.9300    -1.1180     4.7280 ha         1 2R5       0.143000
     46 H9          -0.2040    -0.7830     8.0060 hn         1 2R5       0.453800
     47 H10          2.6760     1.6350     7.4520 hc         1 2R5       0.047256
     48 H11          1.4400     2.8900     7.6210 hc         1 2R5       0.047256
     49 H12          1.2240     1.5890     6.4420 hc         1 2R5       0.047256
     50 H13         -0.9590     1.0250     9.5570 hc         1 2R5       0.047256
     51 H14         -0.3100     2.6270     9.1830 hc         1 2R5       0.047256
     52 H15         -1.0610     1.6570     7.9080 hc         1 2R5       0.047256
     53 H16          1.5380     1.8090    10.3680 hc         1 2R5       0.047256
     54 H17          1.5320     0.0410    10.3030 hc         1 2R5       0.047256
     55 H18          2.8060     0.9520     9.4800 hc         1 2R5       0.047256
     56 H19          6.0800     0.0410     0.8560 hn         1 2R5       0.465800
     57 H20          7.8050     1.2390    -0.6730 ha         1 2R5       0.145500
     58 H21          9.0240     0.9940    -2.8000 ha         1 2R5       0.142500
     59 H22          9.2590     1.2630    -4.8590 h1         1 2R5       0.047200
     60 H23         10.2110    -0.0580    -4.1670 h1         1 2R5       0.047200
     61 H24         10.3520    -1.1220    -6.3940 h1         1 2R5       0.072700
     62 H25          9.4000     0.1980    -7.0860 h1         1 2R5       0.072700
     63 H26         12.8550    -0.6260    -5.6920 h4         1 2R5       0.164000
     64 H27         14.5160     1.3220    -6.2760 ha         1 2R5       0.148000
     65 H28         13.0680     3.3310    -7.3290 ha         1 2R5       0.148000
     66 H29         10.5590     2.5620    -7.3670 h4         1 2R5       0.164000
     67 H30          6.1050    -1.8310    -4.1490 ha         1 2R5       0.142500
     68 H31          4.8860    -1.5880    -2.0210 ha         1 2R5       0.145500
     69 H32          1.6890    -0.0060    -2.1350 h4         1 2R5       0.032100
@<TRIPOS>BOND
     1    31    32 1   
     2    31    30 2   
     3    17    15 1   
     4    32    33 2   
     5    30    29 1   
     6    33    29 1   
     7    15    16 1   
     8    15    18 1   
     9    15    14 1   
    10    29    28 1   
    11    12    11 2   
    12    14    11 1   
    13    28    27 1   
    14    11    13 2   
    15    11     9 1   
    16    27    26 1   
    17     9     8 ar  
    18     9    10 ar  
    19     8     7 ar  
    20    26    25 1   
    21    25    34 ar  
    22    25    24 ar  
    23    10     5 ar  
    24     7     6 ar  
    25    34    35 ar  
    26    24    23 ar  
    27    35    22 ar  
    28    23    22 ar  
    29     5     6 ar  
    30     5     4 1   
    31    22    21 1   
    32     4     3 1   
    33    19     3 ar  
    34    19    20 ar  
    35    21    20 1   
    36     3     2 ar  
    37    20    36 ar  
    38    36    37 ar  
    39     2    37 ar  
    40     2     1 1   
    41     1    38 1   
    42     1    39 1   
    43     1    40 1   
    44     4    41 1   
    45     6    42 1   
    46     7    43 1   
    47     8    44 1   
    48    10    45 1   
    49    14    46 1   
    50    16    47 1   
    51    16    48 1   
    52    16    49 1   
    53    17    50 1   
    54    17    51 1   
    55    17    52 1   
    56    18    53 1   
    57    18    54 1   
    58    18    55 1   
    59    21    56 1   
    60    23    57 1   
    61    24    58 1   
    62    27    59 1   
    63    27    60 1   
    64    28    61 1   
    65    28    62 1   
    66    30    63 1   
    67    31    64 1   
    68    32    65 1   
    69    33    66 1   
    70    34    67 1   
    71    35    68 1   
    72    37    69 1   
@<TRIPOS>SUBSTRUCTURE
     1 2R5         1 TEMP              0 ****  ****    0 ROOT
