@<TRIPOS>MOLECULE
2R5
   69    72     1     0     0
SMALL
bcc


@<TRIPOS>ATOM
      1 C01          0.0000     0.0000     0.0000 c3         1 2R5       0.095200
      2 C02          1.5070     0.0000     0.0000 ca         1 2R5      -0.465900
      3 C03          2.2210     0.0000     1.2010 ca         1 2R5       0.568200
      4 N04          1.5550     0.0050     2.4170 nu         1 2R5      -0.303300
      5 C05          2.2760     0.1240     3.6080 ca         1 2R5      -0.025400
      6 C06          3.4330     0.8910     3.6480 ca         1 2R5      -0.060000
      7 C07          4.1420     1.0080     4.8270 ca         1 2R5      -0.114000
      8 C08          3.7000     0.3620     5.9680 ca         1 2R5      -0.022000
      9 C09          2.5490    -0.4030     5.9310 ca         1 2R5      -0.131500
     10 C10          1.8320    -0.5180     4.7560 ca         1 2R5      -0.035000
     11 S11          1.9920    -1.2240     7.3870 sy         1 2R5       1.042200
     12 O12          1.4780    -2.4800     6.9670 o          1 2R5      -0.589300
     13 O13          3.0320    -1.0920     8.3460 o          1 2R5      -0.589300
     14 N14          0.7040    -0.3640     7.9730 n7         1 2R5      -0.574100
     15 C15          0.9020     0.9960     8.4830 c3         1 2R5       0.188200
     16 C16          1.6130     1.8390     7.4220 c3         1 2R5      -0.031100
     17 C17         -0.4560     1.6220     8.8060 c3         1 2R5      -0.031100
     18 C18          1.7570     0.9460     9.7510 c3         1 2R5      -0.031100
     19 N19          3.5500    -0.0050     1.1600 nb         1 2R5      -0.751000
     20 C20          4.1900    -0.0110    -0.0000 ca         1 2R5       0.735900
     21 N21          5.5750    -0.0170    -0.0070 nu         1 2R5      -0.287300
     22 C22          6.2680    -0.1570    -1.2160 ca         1 2R5      -0.038400
     23 C23          7.4330     0.5670    -1.4370 ca         1 2R5      -0.069000
     24 C24          8.1160     0.4290    -2.6280 ca         1 2R5      -0.157500
     25 C25          7.6380    -0.4330    -3.6050 ca         1 2R5       0.136100
     26 O26          8.3090    -0.5650    -4.7810 os         1 2R5      -0.305900
     27 C27          9.5000     0.2100    -4.9390 c3         1 2R5       0.184400
     28 C28         10.1110    -0.0690    -6.3140 c3         1 2R5      -0.056700
     29 N29         11.3310     0.7250    -6.4760 na         1 2R5       0.432900
     30 C30         12.5890     0.3280    -6.1310 cc         1 2R5      -0.324300
     31 C31         13.4440     1.3270    -6.4310 cd         1 2R5      -0.170000
     32 C32         12.6860     2.3790    -6.9810 cd         1 2R5      -0.170000
     33 C33         11.3970     1.9810    -7.0030 cc         1 2R5      -0.324300
     34 C34          6.4750    -1.1570    -3.3860 ca         1 2R5      -0.157500
     35 C35          5.7940    -1.0230    -2.1920 ca         1 2R5      -0.069000
     36 N36          3.5380    -0.0110    -1.1530 nb         1 2R5      -0.727000
     37 C37          2.2130    -0.0060    -1.1870 ca         1 2R5       0.527200
     38 H1          -0.3610     0.8940     0.4930 hc         1 2R5       0.003700
     39 H2          -0.3610    -0.0200    -1.0210 hc         1 2R5       0.003700
     40 H3          -0.3610    -0.8740     0.5280 hc         1 2R5       0.003700
     41 H4           0.5560    -0.0550     2.4400 hn         1 2R5       0.295800
     42 H5           3.7800     1.3980     2.7550 ha         1 2R5       0.135000
     43 H6           5.0450     1.6060     4.8590 ha         1 2R5       0.109000
     44 H7           4.2590     0.4530     6.8910 ha         1 2R5       0.132000
     45 H8           0.9300    -1.1180     4.7280 ha         1 2R5       0.118000
     46 H9          -0.2040    -0.7830     8.0060 hn         1 2R5       0.349800
     47 H10          2.6760     1.6350     7.4520 hc         1 2R5       0.018033
     48 H11          1.4400     2.8900     7.6210 hc         1 2R5       0.018033
     49 H12          1.2240     1.5890     6.4420 hc         1 2R5       0.018033
     50 H13         -0.9590     1.0250     9.5570 hc         1 2R5       0.018033
     51 H14         -0.3100     2.6270     9.1830 hc         1 2R5       0.018033
     52 H15         -1.0610     1.6570     7.9080 hc         1 2R5       0.018033
     53 H16          1.5380     1.8090    10.3680 hc         1 2R5       0.018033
     54 H17          1.5320     0.0410    10.3030 hc         1 2R5       0.018033
     55 H18          2.8060     0.9520     9.4800 hc         1 2R5       0.018033
     56 H19          6.0800     0.0410     0.8560 hn         1 2R5       0.291800
     57 H20          7.8050     1.2390    -0.6730 ha         1 2R5       0.117000
     58 H21          9.0240     0.9940    -2.8000 ha         1 2R5       0.118500
     59 H22          9.2590     1.2630    -4.8590 h1         1 2R5       0.012200
     60 H23         10.2110    -0.0580    -4.1670 h1         1 2R5       0.012200
     61 H24         10.3520    -1.1220    -6.3940 h1         1 2R5       0.042200
     62 H25          9.4000     0.1980    -7.0860 h1         1 2R5       0.042200
     63 H26         12.8550    -0.6260    -5.6920 h4         1 2R5       0.143000
     64 H27         14.5160     1.3220    -6.2760 ha         1 2R5       0.124000
     65 H28         13.0680     3.3310    -7.3290 ha         1 2R5       0.124000
     66 H29         10.5590     2.5620    -7.3670 h4         1 2R5       0.143000
     67 H30          6.1050    -1.8310    -4.1490 ha         1 2R5       0.118500
     68 H31          4.8860    -1.5880    -2.0210 ha         1 2R5       0.117000
     69 H32          1.6890    -0.0060    -2.1350 h4         1 2R5      -0.016900
@<TRIPOS>BOND
     1     1     2 1   
     2     1    38 1   
     3     1    39 1   
     4     1    40 1   
     5     2     3 ar  
     6     2    37 ar  
     7     3     4 1   
     8     3    19 ar  
     9     4     5 1   
    10     4    41 1   
    11     5     6 ar  
    12     5    10 ar  
    13     6     7 ar  
    14     6    42 1   
    15     7     8 ar  
    16     7    43 1   
    17     8     9 ar  
    18     8    44 1   
    19     9    10 ar  
    20     9    11 1   
    21    10    45 1   
    22    11    12 2   
    23    11    13 2   
    24    11    14 1   
    25    14    15 1   
    26    14    46 1   
    27    15    16 1   
    28    15    17 1   
    29    15    18 1   
    30    16    47 1   
    31    16    48 1   
    32    16    49 1   
    33    17    50 1   
    34    17    51 1   
    35    17    52 1   
    36    18    53 1   
    37    18    54 1   
    38    18    55 1   
    39    19    20 ar  
    40    20    21 1   
    41    20    36 ar  
    42    21    22 1   
    43    21    56 1   
    44    22    23 ar  
    45    22    35 ar  
    46    23    24 ar  
    47    23    57 1   
    48    24    25 ar  
    49    24    58 1   
    50    25    26 1   
    51    25    34 ar  
    52    26    27 1   
    53    27    28 1   
    54    27    59 1   
    55    27    60 1   
    56    28    29 1   
    57    28    61 1   
    58    28    62 1   
    59    29    30 1   
    60    29    33 1   
    61    30    31 2   
    62    30    63 1   
    63    31    32 1   
    64    31    64 1   
    65    32    33 2   
    66    32    65 1   
    67    33    66 1   
    68    34    35 ar  
    69    34    67 1   
    70    35    68 1   
    71    36    37 ar  
    72    37    69 1   
@<TRIPOS>SUBSTRUCTURE
     1 2R5         1 TEMP              0 ****  ****    0 ROOT
