@<TRIPOS>MOLECULE
molecule
   58    61     1     0     0
SMALL
bcc


@<TRIPOS>ATOM
      1 O1           0.0000     0.0000     0.0000 o          1 2R6      -0.640500
      2 C21          1.2160     0.0000     0.0000 c          1 2R6       0.719100
      3 N1           1.8980     0.0000     1.1630 ns         1 2R6      -0.582900
      4 C22          3.3570     0.0590     1.1840 c3         1 2R6       0.107000
      5 C23          3.9560    -0.7620     0.0450 c3         1 2R6      -0.057100
      6 C13          3.3130    -0.3730    -1.2600 ca         1 2R6      -0.041300
      7 C12          4.0340    -0.3810    -2.4320 ca         1 2R6      -0.153000
      8 C14          1.9650    -0.0060    -1.2720 ca         1 2R6      -0.150600
      9 C15          1.3510     0.3510    -2.4710 ca         1 2R6       0.003700
     10 C17         -0.1070     0.7360    -2.4910 c3         1 2R6      -0.036100
     11 C18         -0.9660    -0.5260    -2.5890 c3         1 2R6      -0.062700
     12 C20         -2.4450    -0.1460    -2.4840 c3         1 2R6      -0.089100
     13 C19         -0.7110    -1.2120    -3.9340 c3         1 2R6      -0.089100
     14 C16          2.0780     0.3360    -3.6430 ca         1 2R6      -0.145000
     15 C11          3.4190    -0.0190    -3.6260 ca         1 2R6       0.019800
     16 N            4.1490    -0.0310    -4.8180 na         1 2R6       0.042800
     17 C2           3.7530    -0.6530    -5.9740 cc         1 2R6      -0.172300
     18 C3           5.3350     0.5690    -4.9940 cc         1 2R6      -0.060600
     19 C8           6.1630     1.3650    -4.0180 c3         1 2R6      -0.002100
     20 C7           7.6170     1.3970    -4.4990 c3         1 2R6      -0.060000
     21 C10          8.2110    -0.0100    -4.4000 c3         1 2R6      -0.088600
     22 C9           8.4210     2.3460    -3.6090 c3         1 2R6      -0.088600
     23 C6           7.6980     1.8770    -5.9510 c3         1 2R6      -0.165400
     24 C5           6.9990     0.8540    -6.8360 c          1 2R6       0.611700
     25 O            7.4550     0.4930    -7.9010 o          1 2R6      -0.535100
     26 C4           5.7350     0.3340    -6.3040 cd         1 2R6      -0.263600
     27 C1           4.6920    -0.4650    -6.9240 cd         1 2R6      -0.085300
     28 C            4.6640    -0.9780    -8.3410 c3         1 2R6      -0.013800
     29 H1           1.3950    -0.0410     2.0270 hn         1 2R6       0.331500
     30 H2           3.7040    -0.3540     2.1240 h1         1 2R6       0.050200
     31 H3           3.6610     1.0910     1.0600 h1         1 2R6       0.050200
     32 H4           3.7570    -1.8100     0.2310 hc         1 2R6       0.067700
     33 H5           5.0170    -0.5520    -0.0140 hc         1 2R6       0.067700
     34 H6           5.0810    -0.6570    -2.4230 ha         1 2R6       0.147000
     35 H7          -0.3000     1.3730    -3.3460 hc         1 2R6       0.062700
     36 H8          -0.3510     1.2690    -1.5800 hc         1 2R6       0.062700
     37 H9          -0.7080    -1.2030    -1.7840 hc         1 2R6       0.072700
     38 H10         -2.7200     0.4740    -3.3280 hc         1 2R6       0.033367
     39 H11         -3.0500    -1.0450    -2.4830 hc         1 2R6       0.033367
     40 H12         -2.6120     0.4020    -1.5640 hc         1 2R6       0.033367
     41 H13         -0.5760    -0.4610    -4.7030 hc         1 2R6       0.033367
     42 H14         -1.5580    -1.8390    -4.1860 hc         1 2R6       0.033367
     43 H15          0.1810    -1.8220    -3.8640 hc         1 2R6       0.033367
     44 H16          1.6050     0.6170    -4.5760 ha         1 2R6       0.153000
     45 H17          2.8320    -1.2090    -6.1040 h4         1 2R6       0.174000
     46 H18          5.7790     2.3760    -3.9610 hc         1 2R6       0.057200
     47 H19          6.1160     0.8990    -3.0410 hc         1 2R6       0.057200
     48 H20          7.5570    -0.7140    -4.8990 hc         1 2R6       0.040200
     49 H21          9.1860    -0.0250    -4.8720 hc         1 2R6       0.040200
     50 H22          8.3110    -0.2870    -3.3570 hc         1 2R6       0.040200
     51 H23          8.0170     3.3480    -3.6920 hc         1 2R6       0.040200
     52 H24          8.3580     2.0160    -2.5790 hc         1 2R6       0.040200
     53 H25          9.4570     2.3480    -3.9250 hc         1 2R6       0.040200
     54 H26          8.7410     1.9200    -6.2380 hc         1 2R6       0.072700
     55 H27          7.1640     2.8160    -6.0290 hc         1 2R6       0.072700
     56 H28          5.4900    -1.6620    -8.4940 hc         1 2R6       0.046033
     57 H29          4.7520    -0.1460    -9.0290 hc         1 2R6       0.046033
     58 H30          3.7290    -1.4960    -8.5190 hc         1 2R6       0.046033
@<TRIPOS>BOND
     1    21    20 1
     2    12    11 1
     3     1     2 2
     4    10    11 1
     5    10     9 1
     6    22    20 1
     7    11    13 1
     8    20    19 1
     9    20    23 1
    10     2     8 1
    11     2     3 1
    12     9    14 ar
    13     9     8 ar
    14    14    15 ar
    15     8     6 ar
    16    19    18 1
    17     3     4 1
    18    23    24 1
    19    24    25 2
    20    24    26 1
    21    18    26 2
    22    18    16 1
    23    15    16 1
    24    15     7 ar
    25     6     7 ar
    26     6     5 1
    27    26    27 1
    28    16    17 1
    29     5     4 1
    30    27    17 2
    31    27    28 1
    32     3    29 1
    33     4    30 1
    34     4    31 1
    35     5    32 1
    36     5    33 1
    37     7    34 1
    38    10    35 1
    39    10    36 1
    40    11    37 1
    41    12    38 1
    42    12    39 1
    43    12    40 1
    44    13    41 1
    45    13    42 1
    46    13    43 1
    47    14    44 1
    48    17    45 1
    49    19    46 1
    50    19    47 1
    51    21    48 1
    52    21    49 1
    53    21    50 1
    54    22    51 1
    55    22    52 1
    56    22    53 1
    57    23    54 1
    58    23    55 1
    59    28    56 1
    60    28    57 1
    61    28    58 1
@<TRIPOS>SUBSTRUCTURE
     1 2R6         1 TEMP              0 ****  ****    0 ROOT
