@<TRIPOS>MOLECULE
2R6
   58    61     1     0     0
SMALL
bcc


@<TRIPOS>ATOM
      1 O1           0.0000     0.0000     0.0000 o          1 2R6      -0.677500
      2 C21          1.2160     0.0000     0.0000 c          1 2R6       0.642100
      3 N1           1.8980     0.0000     1.1630 ns         1 2R6      -0.191900
      4 C22          3.3570     0.0590     1.1840 c3         1 2R6       0.048000
      5 C23          3.9560    -0.7620     0.0450 c3         1 2R6       0.015900
      6 C13          3.3130    -0.3730    -1.2600 ca         1 2R6      -0.050300
      7 C12          4.0340    -0.3810    -2.4320 ca         1 2R6      -0.116000
      8 C14          1.9650    -0.0060    -1.2720 ca         1 2R6      -0.144600
      9 C15          1.3510     0.3510    -2.4710 ca         1 2R6       0.006700
     10 C17         -0.1070     0.7360    -2.4910 c3         1 2R6       0.010900
     11 C18         -0.9660    -0.5260    -2.5890 c3         1 2R6      -0.047700
     12 C20         -2.4450    -0.1460    -2.4840 c3         1 2R6       0.000900
     13 C19         -0.7110    -1.2120    -3.9340 c3         1 2R6       0.000900
     14 C16          2.0780     0.3360    -3.6430 ca         1 2R6      -0.109000
     15 C11          3.4190    -0.0190    -3.6260 ca         1 2R6      -0.170200
     16 N            4.1490    -0.0310    -4.8180 na         1 2R6       0.605800
     17 C2           3.7530    -0.6530    -5.9740 cc         1 2R6      -0.369300
     18 C3           5.3350     0.5690    -4.9940 cc         1 2R6      -0.278600
     19 C8           6.1630     1.3650    -4.0180 c3         1 2R6       0.075900
     20 C7           7.6170     1.3970    -4.4990 c3         1 2R6      -0.061000
     21 C10          8.2110    -0.0100    -4.4000 c3         1 2R6      -0.002600
     22 C9           8.4210     2.3460    -3.6090 c3         1 2R6      -0.002600
     23 C6           7.6980     1.8770    -5.9510 c3         1 2R6      -0.113400
     24 C5           6.9990     0.8540    -6.8360 c          1 2R6       0.671700
     25 O            7.4550     0.4930    -7.9010 o          1 2R6      -0.572100
     26 C4           5.7350     0.3340    -6.3040 cd         1 2R6      -0.275600
     27 C1           4.6920    -0.4650    -6.9240 cd         1 2R6      -0.062300
     28 C            4.6640    -0.9780    -8.3410 c3         1 2R6       0.098200
     29 H1           1.3950    -0.0410     2.0270 hn         1 2R6       0.187500
     30 H2           3.7040    -0.3540     2.1240 h1         1 2R6       0.020700
     31 H3           3.6610     1.0910     1.0600 h1         1 2R6       0.020700
     32 H4           3.7570    -1.8100     0.2310 hc         1 2R6       0.034200
     33 H5           5.0170    -0.5520    -0.0140 hc         1 2R6       0.034200
     34 H6           5.0810    -0.6570    -2.4230 ha         1 2R6       0.127000
     35 H7          -0.3000     1.3730    -3.3460 hc         1 2R6       0.037700
     36 H8          -0.3510     1.2690    -1.5800 hc         1 2R6       0.037700
     37 H9          -0.7080    -1.2030    -1.7840 hc         1 2R6       0.050700
     38 H10         -2.7200     0.4740    -3.3280 hc         1 2R6       0.002533
     39 H11         -3.0500    -1.0450    -2.4830 hc         1 2R6       0.002533
     40 H12         -2.6120     0.4020    -1.5640 hc         1 2R6       0.002533
     41 H13         -0.5760    -0.4610    -4.7030 hc         1 2R6       0.002533
     42 H14         -1.5580    -1.8390    -4.1860 hc         1 2R6       0.002533
     43 H15          0.1810    -1.8220    -3.8640 hc         1 2R6       0.002533
     44 H16          1.6050     0.6170    -4.5760 ha         1 2R6       0.129000
     45 H17          2.8320    -1.2090    -6.1040 h4         1 2R6       0.155000
     46 H18          5.7790     2.3760    -3.9610 hc         1 2R6       0.024200
     47 H19          6.1160     0.8990    -3.0410 hc         1 2R6       0.024200
     48 H20          7.5570    -0.7140    -4.8990 hc         1 2R6       0.009700
     49 H21          9.1860    -0.0250    -4.8720 hc         1 2R6       0.009700
     50 H22          8.3110    -0.2870    -3.3570 hc         1 2R6       0.009700
     51 H23          8.0170     3.3480    -3.6920 hc         1 2R6       0.009700
     52 H24          8.3580     2.0160    -2.5790 hc         1 2R6       0.009700
     53 H25          9.4570     2.3480    -3.9250 hc         1 2R6       0.009700
     54 H26          8.7410     1.9200    -6.2380 hc         1 2R6       0.042700
     55 H27          7.1640     2.8160    -6.0290 hc         1 2R6       0.042700
     56 H28          5.4900    -1.6620    -8.4940 hc         1 2R6       0.009033
     57 H29          4.7520    -0.1460    -9.0290 hc         1 2R6       0.009033
     58 H30          3.7290    -1.4960    -8.5190 hc         1 2R6       0.009033
@<TRIPOS>BOND
     1     1     2 2   
     2     2     3 1   
     3     2     8 1   
     4     3     4 1   
     5     3    29 1   
     6     4     5 1   
     7     4    30 1   
     8     4    31 1   
     9     5     6 1   
    10     5    32 1   
    11     5    33 1   
    12     6     7 ar  
    13     6     8 ar  
    14     7    15 ar  
    15     7    34 1   
    16     8     9 ar  
    17     9    10 1   
    18     9    14 ar  
    19    10    11 1   
    20    10    35 1   
    21    10    36 1   
    22    11    12 1   
    23    11    13 1   
    24    11    37 1   
    25    12    38 1   
    26    12    39 1   
    27    12    40 1   
    28    13    41 1   
    29    13    42 1   
    30    13    43 1   
    31    14    15 ar  
    32    14    44 1   
    33    15    16 1   
    34    16    17 1   
    35    16    18 1   
    36    17    27 2   
    37    17    45 1   
    38    18    19 1   
    39    18    26 2   
    40    19    20 1   
    41    19    46 1   
    42    19    47 1   
    43    20    21 1   
    44    20    22 1   
    45    20    23 1   
    46    21    48 1   
    47    21    49 1   
    48    21    50 1   
    49    22    51 1   
    50    22    52 1   
    51    22    53 1   
    52    23    24 1   
    53    23    54 1   
    54    23    55 1   
    55    24    25 2   
    56    24    26 1   
    57    26    27 1   
    58    27    28 1   
    59    28    56 1   
    60    28    57 1   
    61    28    58 1   
@<TRIPOS>SUBSTRUCTURE
     1 2R6         1 TEMP              0 ****  ****    0 ROOT
