@<TRIPOS>MOLECULE
2R7
   48    49     1     0     0
SMALL
bcc


@<TRIPOS>ATOM
      1 CAP          0.0000     0.0000     0.0000 cx         1 2R7      -0.103900
      2 CAQ          1.5300     0.0000     0.0000 cx         1 2R7      -0.103900
      3 CBB          0.7640     0.0000     1.3260 cx         1 2R7      -0.097600
      4 CAV          0.7630    -1.2740     2.1300 c          1 2R7       1.009600
      5 OAF          0.9430    -2.3360     1.5800 o          1 2R7      -0.889300
      6 OAB          0.5630    -1.2320     3.4560 o          1 2R7      -0.889300
      7 NAT          0.7640     1.2400     2.1070 ns         1 2R7      -0.148900
      8 CAW          1.9150     1.7060     2.6310 c          1 2R7       0.595100
      9 OAC          2.9670     1.1490     2.3800 o          1 2R7      -0.702100
     10 N            1.9000     2.7890     3.4320 ns         1 2R7      -0.198900
     11 CA           3.1510     3.2960     4.0010 c3         1 2R7      -0.076300
     12 C            3.4690     2.5430     5.2680 c          1 2R7       0.966600
     13 OXT          4.5760     2.8390     5.9660 o          1 2R7      -0.887800
     14 O            2.7250     1.6720     5.6550 o          1 2R7      -0.887800
     15 CB           3.0010     4.7860     4.3190 c3         1 2R7      -0.024400
     16 CAM          2.8030     5.5660     3.0180 c3         1 2R7      -0.034400
     17 CAL          2.6530     7.0550     3.3340 c3         1 2R7      -0.044400
     18 CAN          2.4560     7.8370     2.0330 c3         1 2R7       0.039000
     19 NAR          2.3110     9.2620     2.3360 ns         1 2R7      -0.178900
     20 CAX          2.1260    10.1480     1.3380 c          1 2R7       0.579700
     21 OAD          2.0780     9.7640     0.1860 o          1 2R7      -0.654100
     22 CAZ          1.9810    11.5870     1.6440 ca         1 2R7      -0.136600
     23 CAJ          1.7880    12.5060     0.6120 ca         1 2R7      -0.055500
     24 CAH          1.6530    13.8480     0.9040 ca         1 2R7      -0.101500
     25 CAY          1.7090    14.2830     2.2170 ca         1 2R7       0.224900
     26 IAG          1.5030    16.3210     2.6510 i          1 2R7      -0.327900
     27 CAI          1.9000    13.3750     3.2450 ca         1 2R7      -0.101500
     28 CAK          2.0300    12.0310     2.9670 ca         1 2R7      -0.055500
     29 H1          -0.4670    -0.9390    -0.2700 hc         1 2R7       0.036450
     30 H2          -0.4670     0.9390    -0.2700 hc         1 2R7       0.036450
     31 H3           1.9970    -0.9390    -0.2700 hc         1 2R7       0.036450
     32 H4           1.9970     0.9390    -0.2700 hc         1 2R7       0.036450
     33 H6          -0.0950     1.7230     2.2780 hn         1 2R7       0.132500
     34 H7           1.0300     3.2200     3.6740 hn         1 2R7       0.138500
     35 H8           3.9550     3.1580     3.2880 h1         1 2R7       0.051700
     36 H10          3.8930     5.1400     4.8210 hc         1 2R7       0.021200
     37 H11          2.1420     4.9330     4.9630 hc         1 2R7       0.021200
     38 H12          3.6620     5.4180     2.3740 hc         1 2R7       0.017700
     39 H13          1.9110     5.2120     2.5160 hc         1 2R7       0.017700
     40 H14          1.7940     7.2030     3.9780 hc         1 2R7       0.012200
     41 H15          3.5450     7.4090     3.8360 hc         1 2R7       0.012200
     42 H16          3.3150     7.6900     1.3900 h1         1 2R7       0.030700
     43 H17          1.5640     7.4820     1.5310 h1         1 2R7       0.030700
     44 H18          2.3490     9.5780     3.2850 hn         1 2R7       0.175500
     45 H19          1.7450    12.1680    -0.4160 ha         1 2R7       0.124000
     46 H20          1.5040    14.5630     0.1040 ha         1 2R7       0.116500
     47 H21          1.9400    13.7210     4.2710 ha         1 2R7       0.116500
     48 H22          2.1800    11.3210     3.7720 ha         1 2R7       0.124000
@<TRIPOS>BOND
     1     1     2 1   
     2     1     3 1   
     3     1    29 1   
     4     1    30 1   
     5     2     3 1   
     6     2    31 1   
     7     2    32 1   
     8     3     4 1   
     9     3     7 1   
    10     4     5 1   
    11     4     6 1   
    12     7     8 1   
    13     7    33 1   
    14     8     9 2   
    15     8    10 1   
    16    10    11 1   
    17    10    34 1   
    18    11    12 1   
    19    11    15 1   
    20    11    35 1   
    21    12    13 1   
    22    12    14 1   
    23    15    16 1   
    24    15    36 1   
    25    15    37 1   
    26    16    17 1   
    27    16    38 1   
    28    16    39 1   
    29    17    18 1   
    30    17    40 1   
    31    17    41 1   
    32    18    19 1   
    33    18    42 1   
    34    18    43 1   
    35    19    20 1   
    36    19    44 1   
    37    20    21 2   
    38    20    22 1   
    39    22    23 ar  
    40    22    28 ar  
    41    23    24 ar  
    42    23    45 1   
    43    24    25 ar  
    44    24    46 1   
    45    25    26 1   
    46    25    27 ar  
    47    27    28 ar  
    48    27    47 1   
    49    28    48 1   
@<TRIPOS>SUBSTRUCTURE
     1 2R7         1 TEMP              0 ****  ****    0 ROOT
