@<TRIPOS>MOLECULE
2RB
   35    37     1     0     0
SMALL
bcc


@<TRIPOS>ATOM
      1 CAA          0.0000     0.0000     0.0000 c3         1 2RB       0.054000
      2 OAO          1.4300     0.0000     0.0000 os         1 2RB      -0.187000
      3 CAR          2.0450     0.0000     1.2090 ca         1 2RB       0.135000
      4 CAI          3.4330    -0.0000     1.2800 ca         1 2RB      -0.189500
      5 CAK          4.0620    -0.0000     2.5050 ca         1 2RB      -0.011000
      6 CAH          1.2860     0.0070     2.3730 ca         1 2RB      -0.189500
      7 CAJ          1.9070     0.0080     3.6030 ca         1 2RB      -0.011000
      8 CAV          3.3020     0.0010     3.6780 ca         1 2RB      -0.194000
      9 CAP          3.9730     0.0010     4.9930 c2         1 2RB       0.277000
     10 OAB          5.1870    -0.0000     5.0570 o          1 2RB      -0.357000
     11 NAN          3.2380     0.0020     6.1230 ns         1 2RB       0.091000
     12 NAM          3.8740     0.0020     7.3710 n2         1 2RB       0.052000
     13 CAG          3.1670     0.0030     8.4610 c2         1 2RB      -0.470000
     14 CAS          3.8360     0.0020     9.7730 c3         1 2RB      -0.166000
     15 CAL          3.0770     0.0030    10.9470 c2         1 2RB       0.043000
     16 CAQ          3.7070     0.0030    12.1730 c2         1 2RB      -0.210000
     17 BrAE         2.6780     0.0030    13.7600 br         1 2RB       0.056000
     18 CAT          5.0950     0.0010    12.2470 c2         1 2RB       0.186000
     19 OAC          5.7080    -0.0000    13.4600 oh         1 2RB      -0.238000
     20 CAW          5.8570    -0.0000    11.0870 c2         1 2RB      -0.273000
     21 BrAF         7.7440    -0.0050    11.1960 br         1 2RB       0.068000
     22 CAU          5.2360    -0.0050     9.8500 c2         1 2RB       0.149000
     23 OAD          5.9800    -0.0110     8.7140 oh         1 2RB      -0.184000
     24 HAA         -0.3610    -0.0040    -1.0210 h1         1 2RB       0.039000
     25 HAAA        -0.3610    -0.8820     0.5140 h1         1 2RB       0.039000
     26 HAAB        -0.3610     0.8870     0.5070 h1         1 2RB       0.039000
     27 HAI          4.0210    -0.0010     0.3700 ha         1 2RB       0.123500
     28 HAK          5.1440    -0.0030     2.5600 ha         1 2RB       0.115000
     29 HAH          0.2040     0.0120     2.3140 ha         1 2RB       0.123500
     30 HAJ          1.3140     0.0110     4.5100 ha         1 2RB       0.115000
     31 HNAN         2.2390    -0.0210     6.0710 hn         1 2RB       0.090000
     32 HAG          3.6100     0.8770     8.9220 DU         1 2RB       0.318000
     33 HAL          1.9960    -0.0420    10.8930 ha         1 2RB       0.138000
     34 HOAC         5.8810    -0.8890    13.7240 ho         1 2RB       0.219000
     35 HOAD         6.7690     0.4860     8.8520 ho         1 2RB       0.211000
@<TRIPOS>BOND
     1     1     2 1   
     2     1    24 1   
     3     1    25 1   
     4     1    26 1   
     5     2     3 1   
     6     3     4 1   
     7     3     6 1   
     8     4     5 1   
     9     4    27 1   
    10     5     8 1   
    11     5    28 1   
    12     6     7 1   
    13     6    29 1   
    14     7     8 1   
    15     7    30 1   
    16     8     9 1   
    17     9    10 1   
    18     9    11 1   
    19    11    12 1   
    20    11    31 1   
    21    12    13 1   
    22    13    14 1   
    23    13    32 1   
    24    14    15 1   
    25    14    22 1   
    26    14    32 1   
    27    15    16 1   
    28    15    33 1   
    29    16    17 1   
    30    16    18 1   
    31    18    19 1   
    32    18    20 1   
    33    19    34 1   
    34    20    21 1   
    35    20    22 1   
    36    22    23 1   
    37    23    35 1   
@<TRIPOS>SUBSTRUCTURE
     1 2RB         1 TEMP              0 ****  ****    0 ROOT
