@<TRIPOS>MOLECULE
molecule
   35    36     1     0     0
SMALL
bcc


@<TRIPOS>ATOM
      1 CAA          0.0000     0.0000     0.0000 c3         1 2RB       0.126700
      2 OAO          1.4300     0.0000     0.0000 os         1 2RB      -0.322900
      3 CAR          2.0450     0.0000     1.2090 ca         1 2RB       0.168100
      4 CAI          3.4330    -0.0000     1.2800 ca         1 2RB      -0.201500
      5 CAK          4.0620    -0.0000     2.5050 ca         1 2RB      -0.046500
      6 CAH          1.2860     0.0070     2.3730 ca         1 2RB      -0.201500
      7 CAJ          1.9070     0.0080     3.6030 ca         1 2RB      -0.046500
      8 CAV          3.3020     0.0010     3.6780 ca         1 2RB      -0.190600
      9 CAP          3.9730     0.0010     4.9930 c          1 2RB       0.695700
     10 OAB          5.1870    -0.0000     5.0570 o          1 2RB      -0.558100
     11 NAN          3.2380     0.0020     6.1230 ns         1 2RB      -0.356900
     12 NAM          3.8740     0.0020     7.3710 n2         1 2RB      -0.368300
     13 CAG          3.1670     0.0030     8.4610 ce         1 2RB       0.369800
     14 CAS          3.8360     0.0020     9.7730 ca         1 2RB      -0.153900
     15 CAL          3.0770     0.0030    10.9470 ca         1 2RB      -0.041000
     16 CAQ          3.7070     0.0030    12.1730 ca         1 2RB      -0.078900
     17 BrAE         2.6780     0.0030    13.7600 br         1 2RB      -0.067100
     18 CAT          5.0950     0.0010    12.2470 ca         1 2RB       0.192100
     19 OAC          5.7080    -0.0000    13.4600 oh         1 2RB      -0.501100
     20 CAW          5.8570    -0.0000    11.0870 ca         1 2RB      -0.134900
     21 BrAF         7.7440    -0.0050    11.1960 br         1 2RB      -0.058100
     22 CAU          5.2360    -0.0050     9.8500 ca         1 2RB       0.205100
     23 OAD          5.9800    -0.0110     8.7140 oh         1 2RB      -0.452100
     24 HAA         -0.3610    -0.8820     0.5140 h1         1 2RB       0.044700
     25 HAAA        -0.3610     0.8870     0.5070 h1         1 2RB       0.044700
     26 HAAB        -0.3610    -0.0040    -1.0210 h1         1 2RB       0.044700
     27 HAI          4.0210    -0.0010     0.3700 ha         1 2RB       0.145500
     28 HAK          5.1440    -0.0030     2.5600 ha         1 2RB       0.143000
     29 HAH          0.2040     0.0120     2.3140 ha         1 2RB       0.145500
     30 HAJ          1.3140     0.0110     4.5100 ha         1 2RB       0.143000
     31 HNAN         2.2390     0.0190     6.0710 hn         1 2RB       0.296500
     32 HAG          2.0850     0.0040     8.4040 h4         1 2RB      -0.011200
     33 HAL          1.9960    -0.0380    10.8930 ha         1 2RB       0.154000
     34 HOAC         5.8840     0.8880    13.7240 ho         1 2RB       0.437000
     35 HOAD         6.6970    -0.6160     8.8110 ho         1 2RB       0.436000
@<TRIPOS>BOND
     1     1     2 1   
     2     2     3 1   
     3     3     4 ar  
     4     3     6 ar  
     5     4     5 ar  
     6     5     8 ar  
     7     6     7 ar  
     8     7     8 ar  
     9     8     9 1   
    10     9    10 2   
    11     9    11 1   
    12    11    12 1   
    13    12    13 2   
    14    13    14 1   
    15    14    15 ar  
    16    14    22 ar  
    17    15    16 ar  
    18    16    17 1   
    19    16    18 ar  
    20    18    19 1   
    21    18    20 ar  
    22    20    21 1   
    23    20    22 ar  
    24    22    23 1   
    25     1    24 1   
    26     1    25 1   
    27     1    26 1   
    28     4    27 1   
    29     5    28 1   
    30     6    29 1   
    31     7    30 1   
    32    11    31 1   
    33    13    32 1   
    34    15    33 1   
    35    19    34 1   
    36    23    35 1   
@<TRIPOS>SUBSTRUCTURE
     1 2RB         1 TEMP              0 ****  ****    0 ROOT
