@<TRIPOS>MOLECULE
2RC
   64    67     1     0     0
SMALL
bcc


@<TRIPOS>ATOM
      1 F01          0.0000     0.0000     0.0000 f          1 2RC      -0.115900
      2 C02          1.3510     0.0000     0.0000 ca         1 2RC      -0.260700
      3 C03          2.0590     0.0000     1.1880 ca         1 2RC       0.483200
      4 N04          3.3840    -0.0000     1.1530 nb         1 2RC      -0.747000
      5 C05          4.0350    -0.0010    -0.0000 ca         1 2RC       0.724900
      6 N06          3.3950    -0.0020    -1.1600 nb         1 2RC      -0.717000
      7 C07          2.0660    -0.0060    -1.2010 ca         1 2RC       0.544200
      8 N08          1.3990    -0.0060    -2.4190 nu         1 2RC      -0.326600
      9 C09          2.1160    -0.1450    -3.6060 ca         1 2RC       0.433200
     10 N10          1.5570     0.2160    -4.7520 nb         1 2RC      -0.537000
     11 C11          2.2010     0.1020    -5.9020 ca         1 2RC       0.387200
     12 N12          1.5920     0.4900    -7.0980 n          1 2RC      -0.052300
     13 C13          2.1240     0.0840    -8.2700 c          1 2RC       0.582500
     14 O14          1.6260     0.4360    -9.3190 o          1 2RC      -0.645500
     15 C15          3.3390    -0.8080    -8.2730 c3         1 2RC       0.073800
     16 O16          4.1470    -0.5200    -7.1270 os         1 2RC      -0.297900
     17 C17          3.4990    -0.4090    -5.9380 ca         1 2RC      -0.051200
     18 C18          4.1130    -0.7960    -4.7560 ca         1 2RC      -0.081000
     19 C19          3.4070    -0.6550    -3.5710 ca         1 2RC      -0.283300
     20 C20          4.1520    -0.5580    -9.5450 c3         1 2RC      -0.000600
     21 C21          2.8970    -2.2720    -8.2300 c3         1 2RC      -0.000600
     22 C22          0.3900     1.3270    -7.0800 c3         1 2RC       0.303800
     23 O23          0.7510     2.6720    -6.7570 os         1 2RC      -0.459200
     24 P24         -0.3230     3.8660    -6.6490 p5         1 2RC       0.664900
     25 O25         -0.9810     4.1290    -8.0950 o          1 2RC      -0.737833
     26 O26         -1.3830     3.4920    -5.6860 o          1 2RC      -0.737833
     27 O27          0.4120     5.2060    -6.1440 o          1 2RC      -0.737833
     28 N28          5.4210    -0.0010     0.0070 nu         1 2RC      -0.296300
     29 C29          6.1150     0.1160     1.2160 ca         1 2RC       0.099600
     30 C30          7.3220    -0.5470     1.3910 ca         1 2RC      -0.268500
     31 C31          8.0100    -0.4320     2.5890 ca         1 2RC       0.179100
     32 O32          9.1920    -1.0820     2.7600 os         1 2RC      -0.300900
     33 C33          9.6650    -1.8670     1.6630 c3         1 2RC       0.238200
     34 C34          7.4910     0.3500     3.6140 ca         1 2RC       0.003100
     35 O35          8.1660     0.4640     4.7920 os         1 2RC      -0.310900
     36 C36          9.1110     1.5310     4.8970 c3         1 2RC       0.246700
     37 C37          6.2830     1.0130     3.4390 ca         1 2RC       0.179100
     38 O38          5.7760     1.7770     4.4430 os         1 2RC      -0.300900
     39 C39          4.5300     2.4320     4.1930 c3         1 2RC       0.238200
     40 C40          5.5990     0.9010     2.2390 ca         1 2RC      -0.268500
     41 H031         1.5360     0.0010     2.1370 h4         1 2RC      -0.018900
     42 H081         0.4040     0.0940    -2.4440 hn         1 2RC       0.310800
     43 H181         5.1210    -1.1900    -4.7580 ha         1 2RC       0.099000
     44 H191         3.7950    -1.0850    -2.6560 ha         1 2RC       0.143000
     45 H203         5.0450    -1.1720    -9.5300 hc         1 2RC       0.010367
     46 H202         4.4340     0.4870    -9.5950 hc         1 2RC       0.010367
     47 H201         3.5540    -0.8120   -10.4120 hc         1 2RC       0.010367
     48 H212         3.7570    -2.9040    -8.0410 hc         1 2RC       0.010367
     49 H213         2.4530    -2.5430    -9.1800 hc         1 2RC       0.010367
     50 H211         2.1690    -2.4070    -7.4390 hc         1 2RC       0.010367
     51 H222        -0.0810     1.3040    -8.0560 h2         1 2RC       0.011700
     52 H221        -0.3020     0.9510    -6.3370 h2         1 2RC       0.011700
     53 H281         5.9250    -0.0570    -0.8560 hn         1 2RC       0.297800
     54 H301         7.7240    -1.1580     0.5920 ha         1 2RC       0.145500
     55 H333         8.9420    -2.6400     1.4330 h1         1 2RC      -0.001967
     56 H331        10.6110    -2.3230     1.9270 h1         1 2RC      -0.001967
     57 H332         9.8010    -1.2310     0.7960 h1         1 2RC      -0.001967
     58 H363         8.7750     2.2390     5.6440 h1         1 2RC      -0.014300
     59 H362        10.0760     1.1320     5.1860 h1         1 2RC      -0.014300
     60 H361         9.2000     2.0300     3.9390 h1         1 2RC      -0.014300
     61 H391         4.2710     3.0520     5.0430 h1         1 2RC      -0.001967
     62 H392         3.7570     1.6900     4.0380 h1         1 2RC      -0.001967
     63 H393         4.6190     3.0510     3.3080 h1         1 2RC      -0.001967
     64 H401         4.6570     1.4180     2.1020 ha         1 2RC       0.145500
@<TRIPOS>BOND
     1     1     2 1   
     2     2     3 ar  
     3     2     7 ar  
     4     3     4 ar  
     5     3    41 1   
     6     4     5 ar  
     7     5     6 ar  
     8     5    28 1   
     9     6     7 ar  
    10     7     8 1   
    11     8     9 1   
    12     8    42 1   
    13     9    10 ar  
    14     9    19 ar  
    15    10    11 ar  
    16    11    12 1   
    17    11    17 ar  
    18    12    13 1   
    19    12    22 1   
    20    13    14 2   
    21    13    15 1   
    22    15    16 1   
    23    15    20 1   
    24    15    21 1   
    25    16    17 1   
    26    17    18 ar  
    27    18    19 ar  
    28    18    43 1   
    29    19    44 1   
    30    20    45 1   
    31    20    46 1   
    32    20    47 1   
    33    21    48 1   
    34    21    49 1   
    35    21    50 1   
    36    22    23 1   
    37    22    51 1   
    38    22    52 1   
    39    23    24 1   
    40    24    25 1   
    41    24    26 1   
    42    24    27 1   
    43    28    29 1   
    44    28    53 1   
    45    29    30 ar  
    46    29    40 ar  
    47    30    31 ar  
    48    30    54 1   
    49    31    32 1   
    50    31    34 ar  
    51    32    33 1   
    52    33    55 1   
    53    33    56 1   
    54    33    57 1   
    55    34    35 1   
    56    34    37 ar  
    57    35    36 1   
    58    36    58 1   
    59    36    59 1   
    60    36    60 1   
    61    37    38 1   
    62    37    40 ar  
    63    38    39 1   
    64    39    61 1   
    65    39    62 1   
    66    39    63 1   
    67    40    64 1   
@<TRIPOS>SUBSTRUCTURE
     1 2RC         1 TEMP              0 ****  ****    0 ROOT
