@<TRIPOS>MOLECULE
2RD
   47    47     1     0     0
SMALL
bcc


@<TRIPOS>ATOM
      1 CAA        -0.0080   -0.5020    0.3770 c3        1 2RD     -0.092100
      2 CAD         1.4600   -0.8320    0.4660 c3        1 2RD     -0.080400
      3 CAE         2.1030   -0.1850    1.6750 c3        1 2RD     -0.079400
      4 CAF         3.5770   -0.5190    1.7600 c3        1 2RD     -0.079400
      5 CAG         4.2180    0.1270    2.9690 c3        1 2RD     -0.078400
      6 CAH         5.6930   -0.2050    3.0530 c3        1 2RD     -0.079400
      7 CAI         6.3350    0.4400    4.2620 c3        1 2RD     -0.078400
      8 CAJ         7.8090    0.1090    4.3450 c3        1 2RD     -0.079400
      9 CAK         8.4520    0.7540    5.5540 c3        1 2RD     -0.077400
     10 CAL         9.9270    0.4210    5.6350 c3        1 2RD     -0.079400
     11 CAM        10.5680    1.0650    6.8470 c3        1 2RD     -0.061400
     12 CAN        12.0300    0.7150    6.9230 c3        1 2RD     -0.047300
     13 SAR        12.7010    1.5380    8.3470 ss        1 2RD     -0.204000
     14 CAU        14.0040    0.5750    8.7780 cc        1 2RD     -0.172700
     15 NAQ        15.3050    1.1110    8.9550 na        1 2RD     -0.064600
     16 NAO        16.1520    0.1550    9.3460 nc        1 2RD     -0.213800
     17 NAP        15.5490   -0.9680    9.3910 nd        1 2RD     -0.369000
     18 CAT        14.1860   -0.8030    9.0560 cd        1 2RD      0.322800
     19 CAS        13.1720   -1.9370    9.0040 c         1 2RD      0.843100
     20 OAC        12.8610   -2.4950   10.0830 o         1 2RD     -0.808300
     21 OAB        12.7020   -2.2230    7.8660 o         1 2RD     -0.808300
     22 HAA1       -0.1600    0.6020    0.2950 hc        1 2RD      0.030367
     23 HAA2       -0.4620   -0.9880   -0.5200 hc        1 2RD      0.030367
     24 HAA3       -0.5490   -0.8630    1.2850 hc        1 2RD      0.030367
     25 HAD1        1.5930   -1.9440    0.5220 hc        1 2RD      0.038200
     26 HAD2        1.9810   -0.4840   -0.4650 hc        1 2RD      0.038200
     27 HAE1        1.9710    0.9270    1.6200 hc        1 2RD      0.038700
     28 HAE2        1.5840   -0.5340    2.6070 hc        1 2RD      0.038700
     29 HAF1        4.0950   -0.1700    0.8280 hc        1 2RD      0.039200
     30 HAF2        3.7080   -1.6320    1.8140 hc        1 2RD      0.039200
     31 HAG1        3.7010   -0.2220    3.9010 hc        1 2RD      0.038200
     32 HAG2        4.0860    1.2400    2.9150 hc        1 2RD      0.038200
     33 HAH1        6.2110    0.1440    2.1210 hc        1 2RD      0.039200
     34 HAH2        5.8250   -1.3180    3.1070 hc        1 2RD      0.039200
     35 HAI1        6.2010    1.5530    4.2100 hc        1 2RD      0.036700
     36 HAI2        5.8190    0.0890    5.1940 hc        1 2RD      0.036700
     37 HAJ1        8.3260    0.4580    3.4130 hc        1 2RD      0.040200
     38 HAJ2        7.9430   -1.0040    4.4000 hc        1 2RD      0.040200
     39 HAK1        8.3180    1.8670    5.5030 hc        1 2RD      0.035700
     40 HAK2        7.9380    0.4010    6.4860 hc        1 2RD      0.035700
     41 HAL1       10.4440    0.7710    4.7030 hc        1 2RD      0.047700
     42 HAL2       10.0630   -0.6920    5.6930 hc        1 2RD      0.047700
     43 HAM1       10.0490    0.7090    7.7770 hc        1 2RD      0.042200
     44 HAM2       10.4370    2.1790    6.7940 hc        1 2RD      0.042200
     45 HAN1       12.5680    1.0560    6.0070 h1        1 2RD      0.101200
     46 HAN2       12.1720   -0.4000    7.0190 h1        1 2RD      0.101200
     47 HNAQ       15.5460    2.0710    8.9590 hn        1 2RD      0.299700
@<TRIPOS>BOND
     1    1    2 1   
     2    1   22 1   
     3    1   23 1   
     4    1   24 1   
     5    2    3 1   
     6    2   25 1   
     7    2   26 1   
     8    3    4 1   
     9    3   27 1   
    10    3   28 1   
    11    4    5 1   
    12    4   29 1   
    13    4   30 1   
    14    5    6 1   
    15    5   31 1   
    16    5   32 1   
    17    6    7 1   
    18    6   33 1   
    19    6   34 1   
    20    7    8 1   
    21    7   35 1   
    22    7   36 1   
    23    8    9 1   
    24    8   37 1   
    25    8   38 1   
    26    9   10 1   
    27    9   39 1   
    28    9   40 1   
    29   10   11 1   
    30   10   41 1   
    31   10   42 1   
    32   11   12 1   
    33   11   43 1   
    34   11   44 1   
    35   12   13 1   
    36   12   45 1   
    37   12   46 1   
    38   13   14 1   
    39   14   15 1   
    40   14   18 2   
    41   15   16 1   
    42   15   47 1   
    43   16   17 2   
    44   17   18 1   
    45   18   19 1   
    46   19   20 1   
    47   19   21 1   
@<TRIPOS>SUBSTRUCTURE
     1 2RD         1 TEMP              0 ****  ****    0 ROOT
