@<TRIPOS>MOLECULE
molecule
   47    47     1     0     0
SMALL
bcc


@<TRIPOS>ATOM
      1 CAA          0.0000     0.0000     0.0000 c3         1 2RD      -0.092100
      2 CAD          1.5310     0.0000     0.0000 c3         1 2RD      -0.084400
      3 CAE          2.0410     0.0000     1.4420 c3         1 2RD      -0.081400
      4 CAF          3.5710    -0.0000     1.4410 c3         1 2RD      -0.082400
      5 CAG          4.0810     0.0000     2.8840 c3         1 2RD      -0.082400
      6 CAH          5.6110    -0.0000     2.8840 c3         1 2RD      -0.082400
      7 CAI          6.1220     0.0000     4.3260 c3         1 2RD      -0.082400
      8 CAJ          7.6520    -0.0010     4.3260 c3         1 2RD      -0.082400
      9 CAK          8.1620     0.0000     5.7680 c3         1 2RD      -0.081400
     10 CAL          9.6920    -0.0010     5.7680 c3         1 2RD      -0.081400
     11 CAM         10.2020    -0.0000     7.2110 c3         1 2RD      -0.060400
     12 CAN         11.7320    -0.0010     7.2100 c3         1 2RD      -0.075300
     13 SAR         12.3360     0.0000     8.9160 ss         1 2RD      -0.087000
     14 CAU         14.0740    -0.0010     8.6260 cc         1 2RD      -0.094700
     15 NAQ         14.6960     0.0040     7.4220 na         1 2RD      -0.081600
     16 NAO         16.0740     0.0020     7.6760 nc         1 2RD      -0.251800
     17 NAP         16.2650    -0.0050     8.9480 nd         1 2RD      -0.296000
     18 CAT         15.0790    -0.0010     9.5870 cd         1 2RD       0.284800
     19 CAS         14.8830     0.0000    11.0390 c          1 2RD       0.801100
     20 OAC         13.7580     0.0010    11.5020 o          1 2RD      -0.819300
     21 OAB         15.9510     0.0000    11.8640 o          1 2RD      -0.819300
     22 HAA1        -0.3610     0.8850     0.5110 hc         1 2RD       0.031700
     23 HAA2        -0.3610    -0.8840     0.5110 hc         1 2RD       0.031700
     24 HAA3        -0.3610    -0.0000    -1.0210 hc         1 2RD       0.031700
     25 HAD1         1.8920    -0.8840    -0.5110 hc         1 2RD       0.039700
     26 HAD2         1.8920     0.8840    -0.5110 hc         1 2RD       0.039700
     27 HAE1         1.6800     0.8840     1.9530 hc         1 2RD       0.040700
     28 HAE2         1.6800    -0.8840     1.9530 hc         1 2RD       0.040700
     29 HAF1         3.9320    -0.8850     0.9310 hc         1 2RD       0.040700
     30 HAF2         3.9320     0.8850     0.9310 hc         1 2RD       0.040700
     31 HAG1         3.7200     0.8850     3.3950 hc         1 2RD       0.040700
     32 HAG2         3.7200    -0.8850     3.3950 hc         1 2RD       0.040700
     33 HAH1         5.9720     0.8840     2.3730 hc         1 2RD       0.039700
     34 HAH2         5.9720    -0.8840     2.3730 hc         1 2RD       0.039700
     35 HAI1         5.7600    -0.8840     4.8370 hc         1 2RD       0.040700
     36 HAI2         5.7610     0.8850     4.8360 hc         1 2RD       0.040700
     37 HAJ1         8.0130     0.8830     3.8150 hc         1 2RD       0.039700
     38 HAJ2         8.0120    -0.8860     3.8170 hc         1 2RD       0.039700
     39 HAK1         7.8000    -0.8840     6.2790 hc         1 2RD       0.042700
     40 HAK2         7.8010     0.8850     6.2780 hc         1 2RD       0.042700
     41 HAL1        10.0540     0.8830     5.2560 hc         1 2RD       0.038700
     42 HAL2        10.0530    -0.8860     5.2580 hc         1 2RD       0.038700
     43 HAM1         9.8410    -0.8840     7.7220 hc         1 2RD       0.053200
     44 HAM2         9.8420     0.8850     7.7210 hc         1 2RD       0.053200
     45 HAN1        12.0930     0.8830     6.6990 h1         1 2RD       0.048700
     46 HAN2        12.0920    -0.8860     6.7000 h1         1 2RD       0.048700
     47 HNAQ        14.2550     0.0090     6.5240 hn         1 2RD       0.304700
@<TRIPOS>BOND
     1     1     2 1   
     2     2     3 1   
     3     3     4 1   
     4     4     5 1   
     5     6     5 1   
     6     6     7 1   
     7     7     8 1   
     8     9     8 1   
     9     9    10 1   
    10    11    10 1   
    11    11    12 1   
    12    12    13 1   
    13    13    14 1   
    14    20    19 1   
    15    19    18 1   
    16    19    21 1   
    17    14    18 2   
    18    14    15 1   
    19    18    17 1   
    20    15    16 1   
    21    17    16 2   
    22     1    22 1   
    23     1    23 1   
    24     1    24 1   
    25     2    25 1   
    26     2    26 1   
    27     3    27 1   
    28     3    28 1   
    29     4    29 1   
    30     4    30 1   
    31     5    31 1   
    32     5    32 1   
    33     6    33 1   
    34     6    34 1   
    35     7    35 1   
    36     7    36 1   
    37     8    37 1   
    38     8    38 1   
    39     9    39 1   
    40     9    40 1   
    41    10    41 1   
    42    10    42 1   
    43    11    43 1   
    44    11    44 1   
    45    12    45 1   
    46    12    46 1   
    47    15    47 1   
@<TRIPOS>SUBSTRUCTURE
     1 2RD         1 TEMP              0 ****  ****    0 ROOT
