@<TRIPOS>MOLECULE
2RE
   39    42     1     0     0
SMALL
bcc


@<TRIPOS>ATOM
      1 F01        -0.0850   -0.1040    0.3760 f         1 2RE     -0.140900
      2 C02         1.2670   -0.0940    0.2900 ca        1 2RE      0.127900
      3 C03         2.0460   -0.2330    1.4530 ca        1 2RE     -0.172000
      4 C04         3.4330   -0.2210    1.3570 ca        1 2RE     -0.085500
      5 C05         4.0610   -0.0790    0.1110 ca        1 2RE     -0.129500
      6 C06         5.5120   -0.0500    0.0240 cc        1 2RE      0.388800
      7 C07         6.3400   -0.6030   -0.9930 cd        1 2RE     -0.162600
      8 C08         6.0250   -1.3790   -2.1750 ca        1 2RE      0.024000
      9 C09         4.9810   -2.3160   -2.1580 ca        1 2RE     -0.239800
     10 C10         4.7250   -3.0600   -3.3230 ca        1 2RE      0.396200
     11 N11         5.4280   -2.9280   -4.4650 nb        1 2RE     -0.660000
     12 C12         6.4260   -2.0240   -4.4690 ca        1 2RE      0.396200
     13 C13         6.7650   -1.2300   -3.3600 ca        1 2RE     -0.239800
     14 N14         7.6530   -0.2770   -0.6320 na        1 2RE     -0.301900
     15 C15         7.5950    0.4370    0.5740 cd        1 2RE      0.480000
     16 C16         8.7820    0.9460    1.2570 ca        1 2RE     -0.169500
     17 C17         8.6890    2.1220    2.0140 ca        1 2RE     -0.067000
     18 C18         9.8090    2.6230    2.6710 ca        1 2RE     -0.189000
     19 C19        11.0300    1.9390    2.5720 ca        1 2RE      0.139100
     20 O20        12.1780    2.3740    3.1890 oh        1 2RE     -0.493100
     21 C21        11.1320    0.7550    1.8230 ca        1 2RE     -0.189000
     22 C22        10.0060    0.2660    1.1730 ca        1 2RE     -0.067000
     23 N23         6.3050    0.5860    0.9830 nc        1 2RE     -0.656000
     24 C24         3.2760    0.0640   -1.0430 ca        1 2RE     -0.085500
     25 C25         1.8890    0.0570   -0.9640 ca        1 2RE     -0.172000
     26 H1          1.5510   -0.3460    2.4290 ha        1 2RE      0.150000
     27 H2          4.0410   -0.3200    2.2700 ha        1 2RE      0.149500
     28 H3          4.3730   -2.4600   -1.2540 ha        1 2RE      0.150500
     29 H4          3.9100   -3.8070   -3.3440 h4        1 2RE      0.025600
     30 H5          6.9850   -1.9310   -5.4180 h4        1 2RE      0.025600
     31 H6          7.5810   -0.5000   -3.4370 ha        1 2RE      0.150500
     32 H7          8.4670   -0.5270   -1.1300 hn        1 2RE      0.306700
     33 H8          7.7270    2.6540    2.0920 ha        1 2RE      0.146000
     34 H9          9.7360    3.5450    3.2650 ha        1 2RE      0.148000
     35 H10        11.9680    3.1830    3.6800 ho        1 2RE      0.423000
     36 H11        12.0970    0.2310    1.7660 ha        1 2RE      0.148000
     37 H12        10.0870   -0.6730    0.6050 ha        1 2RE      0.146000
     38 H14         3.7660    0.1840   -2.0220 ha        1 2RE      0.149500
     39 H15         1.2730    0.1720   -1.8670 ha        1 2RE      0.150000
@<TRIPOS>BOND
     1    1    2 1   
     2    2    3 ar  
     3    2   25 ar  
     4    3    4 ar  
     5    3   26 1   
     6    4    5 ar  
     7    4   27 1   
     8    5    6 1   
     9    5   24 ar  
    10    6    7 2   
    11    6   23 1   
    12    7    8 1   
    13    7   14 1   
    14    8    9 ar  
    15    8   13 ar  
    16    9   10 ar  
    17    9   28 1   
    18   10   11 ar  
    19   10   29 1   
    20   11   12 ar  
    21   12   13 ar  
    22   12   30 1   
    23   13   31 1   
    24   14   15 1   
    25   14   32 1   
    26   15   16 1   
    27   15   23 2   
    28   16   17 ar  
    29   16   22 ar  
    30   17   18 ar  
    31   17   33 1   
    32   18   19 ar  
    33   18   34 1   
    34   19   20 1   
    35   19   21 ar  
    36   20   35 1   
    37   21   22 ar  
    38   21   36 1   
    39   22   37 1   
    40   24   25 ar  
    41   24   38 1   
    42   25   39 1   
@<TRIPOS>SUBSTRUCTURE
     1 2RE         1 TEMP              0 ****  ****    0 ROOT
