@<TRIPOS>MOLECULE
molecule
   39    42     1     0     0
SMALL
bcc


@<TRIPOS>ATOM
      1 F01          0.0000     0.0000     0.0000 f          1 2RE      -0.141900
      2 C02          1.3510     0.0000     0.0000 ca         1 2RE       0.134900
      3 C03          2.0420     0.0000     1.2020 ca         1 2RE      -0.172500
      4 C04          3.4220    -0.0000     1.2050 ca         1 2RE      -0.084000
      5 C05          4.1200     0.0000    -0.0010 ca         1 2RE      -0.125500
      6 C06          5.6030     0.0010    -0.0020 cc         1 2RE       0.401800
      7 C07          6.4190    -0.6400    -0.9190 cd         1 2RE      -0.179600
      8 C08          5.9860    -1.4480    -2.0740 ca         1 2RE       0.020000
      9 C09          4.9580    -2.3930    -1.9480 ca         1 2RE      -0.243800
     10 C10          4.5810    -3.1210    -3.0560 ca         1 2RE       0.421700
     11 N11          5.1740    -2.9390    -4.2210 nb         1 2RE      -0.688000
     12 C12          6.1470    -2.0610    -4.3830 ca         1 2RE       0.421700
     13 C13          6.5870    -1.2890    -3.3300 ca         1 2RE      -0.243800
     14 N14          7.7150    -0.3740    -0.5380 na         1 2RE      -0.278900
     15 C15          7.6540     0.4080     0.5800 cd         1 2RE       0.474000
     16 C16          8.8180     0.9300     1.3240 ca         1 2RE      -0.128500
     17 C17          8.6260     1.7230     2.4580 ca         1 2RE      -0.093500
     18 C18          9.7130     2.2080     3.1500 ca         1 2RE      -0.152000
     19 C19         11.0010     1.9090     2.7220 ca         1 2RE       0.115100
     20 O20         12.0710     2.3900     3.4080 oh         1 2RE      -0.520100
     21 C21         11.1960     1.1210     1.5940 ca         1 2RE      -0.152000
     22 C22         10.1140     0.6280     0.9010 ca         1 2RE      -0.093500
     23 N23          6.3930     0.6270     0.8830 nc         1 2RE      -0.678000
     24 C24          3.4200     0.0010    -1.2070 ca         1 2RE      -0.084000
     25 C25          2.0410    -0.0050    -1.2010 ca         1 2RE      -0.172500
     26 H1           1.4980    -0.0000     2.1390 ha         1 2RE       0.147000
     27 H2           3.9610    -0.0000     2.1450 ha         1 2RE       0.148500
     28 H3           4.4660    -2.5470    -0.9950 ha         1 2RE       0.146500
     29 H4           3.7870    -3.8530    -2.9700 h4         1 2RE       0.027600
     30 H5           6.6050    -1.9460    -5.3580 h4         1 2RE       0.027600
     31 H6           7.3860    -0.5710    -3.4710 ha         1 2RE       0.146500
     32 H7           8.5460    -0.6930    -0.9950 hn         1 2RE       0.307700
     33 H8           7.6220     1.9560     2.7920 ha         1 2RE       0.142000
     34 H9           9.5640     2.8230     4.0290 ha         1 2RE       0.146000
     35 H10         12.3200     1.7720     4.0750 ho         1 2RE       0.422000
     36 H11         12.2020     0.8880     1.2650 ha         1 2RE       0.146000
     37 H12         10.2670     0.0140     0.0220 ha         1 2RE       0.142000
     38 H14          3.9580    -0.0010    -2.1470 ha         1 2RE       0.148500
     39 H15          1.4960    -0.0040    -2.1380 ha         1 2RE       0.147000
@<TRIPOS>BOND
     1     1     2 1   
     2     2    25 ar  
     3     2     3 ar  
     4    10    11 ar  
     5    10     9 ar  
     6    25    24 ar  
     7    11    12 ar  
     8     3     4 ar  
     9     9     8 ar  
    10    24     5 ar  
    11     4     5 ar  
    12    12    13 ar  
    13     5     6 1   
    14     8    13 ar  
    15     8     7 1   
    16     6     7 2   
    17     6    23 1   
    18     7    14 1   
    19    23    15 2   
    20    14    15 1   
    21    15    16 1   
    22    16    17 ar  
    23    16    22 ar  
    24    17    18 ar  
    25    22    21 ar  
    26    18    19 ar  
    27    21    19 ar  
    28    19    20 1   
    29     3    26 1   
    30     4    27 1   
    31     9    28 1   
    32    10    29 1   
    33    12    30 1   
    34    13    31 1   
    35    14    32 1   
    36    17    33 1   
    37    18    34 1   
    38    20    35 1   
    39    21    36 1   
    40    22    37 1   
    41    24    38 1   
    42    25    39 1   
@<TRIPOS>SUBSTRUCTURE
     1 2RE         1 TEMP              0 ****  ****    0 ROOT
