@<TRIPOS>MOLECULE
2RF
   33    35     1     0     0
SMALL
bcc


@<TRIPOS>ATOM
      1 C01          0.0000     0.0000     0.0000 ca         1 2RF      -0.085000
      2 C02          1.3790     0.0000     0.0000 ca         1 2RF      -0.069000
      3 C03          2.0760     0.0000     1.2100 ca         1 2RF      -0.013800
      4 C04          1.3690    -0.0000     2.4140 ca         1 2RF      -0.097000
      5 C05         -0.0120     0.0010     2.4010 ca         1 2RF      -0.032600
      6 C06         -0.6940     0.0060     1.1970 ca         1 2RF      -0.092000
      7 Cl1         -0.8930    -0.0000     3.8970 cl         1 2RF      -0.022400
      8 C08          3.5540    -0.0010     1.2180 cc         1 2RF      -0.143400
      9 C09          4.3730     0.9910     1.6890 cd         1 2RF      -0.078200
     10 C10          5.7630     0.5220     1.4750 c          1 2RF       0.606700
     11 O11          6.7720     1.1300     1.7670 o          1 2RF      -0.590500
     12 N12          5.7160    -0.6930     0.9010 ns         1 2RF      -0.170500
     13 C13          4.4390    -1.0720     0.7230 c          1 2RF       0.627700
     14 O14          4.0730    -2.1220     0.2320 o          1 2RF      -0.598500
     15 N15          3.9820     2.1870     2.2520 nu         1 2RF      -0.170400
     16 C16          4.4040     3.3940     1.6900 ca         1 2RF       0.018600
     17 C17          5.0880     3.3970     0.4800 ca         1 2RF      -0.133000
     18 C18          5.5040     4.5910    -0.0750 ca         1 2RF      -0.026600
     19 C19          5.2400     5.7890     0.5770 ca         1 2RF       0.092100
     20 C20          4.5590     5.7860     1.7850 ca         1 2RF      -0.093000
     21 C21          4.1370     4.5940     2.3380 ca         1 2RF      -0.138000
     22 O22          5.6520     6.9640     0.0310 oh         1 2RF      -0.487100
     23 Cl2          6.3580     4.5950    -1.5860 cl         1 2RF      -0.005400
     24 H011        -0.5410     0.0020    -0.9390 ha         1 2RF       0.110000
     25 H021         1.9220    -0.0020    -0.9380 ha         1 2RF       0.114000
     26 H041         1.9030    -0.0020     3.3570 ha         1 2RF       0.114000
     27 H061        -1.7780     0.0060     1.1910 ha         1 2RF       0.116000
     28 H121         6.5160    -1.2390     0.6480 hn         1 2RF       0.206500
     29 H151         3.4030     2.1910     3.0680 hn         1 2RF       0.291800
     30 H171         5.2930     2.4620    -0.0280 ha         1 2RF       0.123000
     31 H201         4.3520     6.7210     2.2920 ha         1 2RF       0.115000
     32 H211         3.6040     4.5930     3.2820 ha         1 2RF       0.110000
     33 H221         4.9250     7.3800    -0.4030 ho         1 2RF       0.401000
@<TRIPOS>BOND
     1     1     2 ar  
     2     1     6 ar  
     3     1    24 1   
     4     2     3 ar  
     5     2    25 1   
     6     3     4 ar  
     7     3     8 1   
     8     4     5 ar  
     9     4    26 1   
    10     5     6 ar  
    11     5     7 1   
    12     6    27 1   
    13     8     9 2   
    14     8    13 1   
    15     9    10 1   
    16     9    15 1   
    17    10    11 2   
    18    10    12 1   
    19    12    13 1   
    20    12    28 1   
    21    13    14 2   
    22    15    16 1   
    23    15    29 1   
    24    16    17 ar  
    25    16    21 ar  
    26    17    18 ar  
    27    17    30 1   
    28    18    19 ar  
    29    18    23 1   
    30    19    20 ar  
    31    19    22 1   
    32    20    21 ar  
    33    20    31 1   
    34    21    32 1   
    35    22    33 1   
@<TRIPOS>SUBSTRUCTURE
     1 2RF         1 TEMP              0 ****  ****    0 ROOT
