@<TRIPOS>MOLECULE
molecule
   58    60     1     0     0
SMALL
bcc


@<TRIPOS>ATOM
      1 C            0.0000     0.0000     0.0000 c          1 2RG       0.654100
      2 N            2.0320     1.2710    -0.5610 n7         1 2RG      -0.787200
      3 O           -0.6060     1.0470    -0.0910 o          1 2RG      -0.578100
      4 CA           1.5070     0.0000     0.0000 c3         1 2RG       0.079500
      5 CB           2.0540     0.0000     1.4500 c3         1 2RG      -0.091400
      6 CD           3.4050     1.4100    -0.0300 c3         1 2RG       0.149800
      7 CG           3.4630     0.6160     1.2890 c3         1 2RG       0.002400
      8 CAB          7.9380     3.1960     4.9260 c3         1 2RG      -0.165700
      9 CAD          6.7110     2.4610     4.3830 c3         1 2RG       0.102500
     10 CAE          8.6020     2.3480     6.0130 c3         1 2RG       0.157100
     11 CAF          9.8290     3.0840     6.5560 c3         1 2RG      -0.130100
     12 OAG          7.6720     2.1240     7.0760 oh         1 2RG      -0.607800
     13 CAH          5.9690     3.3440     3.3520 c3         1 2RG      -0.094700
     14 CAI          5.5210     2.2750     2.3250 c3         1 2RG      -0.058900
     15 NAJ          7.1220     1.2660     3.6360 n2         1 2RG      -0.583900
     16 SAK          3.8270     1.7260     2.6760 ss         1 2RG      -0.372200
     17 CAL          6.5000     1.1420     2.5330 ce         1 2RG       0.394300
     18 CAM          6.7080     0.0300     1.5750 c          1 2RG       0.809300
     19 OAT          7.6060    -0.9350     1.8490 o          1 2RG      -0.812800
     20 OAU          6.0700    -0.0110     0.5440 o          1 2RG      -0.812800
     21 NAX         -0.6740    -1.1620     0.1080 ns         1 2RG      -0.477100
     22 CAY         -2.0700    -1.1540     0.2130 ca         1 2RG       0.017600
     23 CAZ         -2.8110    -0.2070    -0.4750 ca         1 2RG      -0.097000
     24 CBA         -4.2020    -0.2040    -0.3660 ca         1 2RG      -0.094600
     25 CBB         -4.8370    -1.1550     0.4340 ca         1 2RG      -0.112000
     26 CBC         -4.0900    -2.0940     1.1160 ca         1 2RG      -0.157000
     27 CBD         -2.7120    -2.1010     1.0040 ca         1 2RG      -0.185000
     28 CBE         -5.0000     0.8020    -1.0960 c          1 2RG       0.884200
     29 OBF         -4.4460     1.6300    -1.7920 o          1 2RG      -0.840300
     30 OBG         -6.3430     0.8030    -0.9900 o          1 2RG      -0.840300
     31 HN           1.4710     2.0350    -0.2400 hn         1 2RG       0.369800
     32 HA           1.8960    -0.8470    -0.5520 h1         1 2RG       0.076700
     33 HB           1.4370     0.6190     2.0900 hc         1 2RG       0.057200
     34 HBA          2.1210    -1.0110     1.8320 hc         1 2RG       0.057200
     35 HD           4.1170     1.0000    -0.7370 h1         1 2RG       0.066700
     36 HDA          3.6230     2.4540     0.1600 h1         1 2RG       0.066700
     37 HG           4.2080    -0.1680     1.2210 h1         1 2RG       0.137700
     38 HAB          7.6330     4.1470     5.3460 hc         1 2RG       0.071700
     39 HAD          6.0430     2.1860     5.1900 h1         1 2RG       0.090700
     40 HAE          8.9070     1.3970     5.5940 h1         1 2RG       0.067700
     41 HAF         10.1760     2.5920     7.4560 hc         1 2RG       0.035700
     42 HAFA        10.6150     3.0730     5.8120 hc         1 2RG       0.035700
     43 HAFB         9.5630     4.1090     6.7850 hc         1 2RG       0.035700
     44 HOAG         7.9590     1.3920     7.5960 ho         1 2RG       0.397000
     45 HAH          5.1120     3.8290     3.8040 hc         1 2RG       0.067700
     46 HAI          5.6000     2.6630     1.3170 h1         1 2RG       0.086700
     47 HNAX        -0.1780    -2.0310     0.0900 hn         1 2RG       0.309500
     48 HAZ         -2.3120     0.5280    -1.0950 ha         1 2RG       0.183000
     49 HBB         -5.9170    -1.1550     0.5230 ha         1 2RG       0.147000
     50 HBC         -4.5850    -2.8320     1.7350 ha         1 2RG       0.100000
     51 HBD         -2.1300    -2.8400     1.5410 ha         1 2RG       0.101000
     52 CAA          8.9190     3.4340     3.8060 c          1 2RG       0.602900
     53 OAC          9.3390     4.5460     3.5970 o          1 2RG      -0.577100
     54 HAA          9.2890     2.5980     3.2250 h4         1 2RG       0.028200
     55 CAS          6.9160     4.3610     2.7120 c3         1 2RG      -0.102100
     56 HAS          7.7460     3.8410     2.2500 hc         1 2RG       0.043700
     57 HASA         7.2910     5.0340     3.4740 hc         1 2RG       0.043700
     58 HASB         6.3820     4.9290     1.9600 hc         1 2RG       0.043700
@<TRIPOS>BOND
     1     3     1 2
     2     4     1 1
     3     1    21 1
     4     2     6 1
     5     2     4 1
     6     2    31 1
     7     4     5 1
     8     4    32 1
     9     7     5 1
    10     5    33 1
    11     5    34 1
    12     6     7 1
    13     6    35 1
    14     6    36 1
    15     7    16 1
    16     7    37 1
    17    53    52 2
    18     8    52 1
    19    52    54 1
    20     8     9 1
    21     8    10 1
    22     8    38 1
    23    13     9 1
    24     9    15 1
    25     9    39 1
    26    11    10 1
    27    10    12 1
    28    10    40 1
    29    11    41 1
    30    11    42 1
    31    11    43 1
    32    12    44 1
    33    55    13 1
    34    13    14 1
    35    13    45 1
    36    14    17 1
    37    14    16 1
    38    14    46 1
    39    17    15 2
    40    18    17 1
    41    20    18 1
    42    18    19 1
    43    55    56 1
    44    55    57 1
    45    55    58 1
    46    21    22 1
    47    21    47 1
    48    22    23 ar
    49    22    27 ar
    50    23    24 ar
    51    23    48 1
    52    24    28 1
    53    24    25 ar
    54    26    25 ar
    55    25    49 1
    56    27    26 ar
    57    26    50 1
    58    27    51 1
    59    29    28 1
    60    28    30 1
@<TRIPOS>SUBSTRUCTURE
     1 2RG         1 TEMP              0 ****  ****    0 ROOT
