@<TRIPOS>MOLECULE
molecule
   20    19     1     0     0
SMALL
bcc


@<TRIPOS>ATOM
      1 C1           1.5080     0.0000     0.0000 c3         1 2RH       0.036100
      2 O1          -0.6030    -0.9480    -0.4430 o          1 2RH      -0.844800
      3 C2           2.0170     0.0000     1.4430 c3         1 2RH      -0.049400
      4 O2          -0.6710     1.0540     0.4920 o          1 2RH      -0.844800
      5 C3           0.0000     0.0000     0.0000 c          1 2RH       0.868600
      6 O3           1.9830    -1.1660    -0.6740 oh         1 2RH      -0.618800
      7 C4           3.5430     0.1260     1.4440 c3         1 2RH      -0.082700
      8 C5           3.9430     1.4880     0.8730 c3         1 2RH      -0.085600
      9 C6           4.0630     0.0000     2.8780 c3         1 2RH      -0.085600
     10 H1           1.8690     0.8850    -0.5110 h1         1 2RH       0.015700
     11 H2           1.5850     0.8370     1.9780 hc         1 2RH       0.055200
     12 H2A          1.7300    -0.9260     1.9270 hc         1 2RH       0.055200
     13 HO3          1.9210    -1.0380    -1.6060 ho         1 2RH       0.386000
     14 H4           3.9710    -0.6610     0.8350 hc         1 2RH       0.054700
     15 H5           3.2230     2.2360     1.1850 hc         1 2RH       0.023533
     16 H5A          4.9260     1.7590     1.2390 hc         1 2RH       0.023533
     17 H5B          3.9620     1.4350    -0.2080 hc         1 2RH       0.023533
     18 H6           3.6680     0.8110     3.4770 hc         1 2RH       0.023533
     19 H6A          5.1450     0.0470     2.8750 hc         1 2RH       0.023533
     20 H6B          3.7430    -0.9470     3.2960 hc         1 2RH       0.023533
@<TRIPOS>BOND
     1     5     1 1   
     2     1     6 1   
     3     1     3 1   
     4     1    10 1   
     5     2     5 1   
     6     3     7 1   
     7     3    11 1   
     8     3    12 1   
     9     4     5 1   
    10     6    13 1   
    11     7     9 1   
    12     7     8 1   
    13     7    14 1   
    14     8    15 1   
    15     8    16 1   
    16     8    17 1   
    17     9    18 1   
    18     9    19 1   
    19     9    20 1   
@<TRIPOS>SUBSTRUCTURE
     1 2RH         1 TEMP              0 ****  ****    0 ROOT
