@<TRIPOS>MOLECULE
2RH
   20    19     1     0     0
SMALL
bcc


@<TRIPOS>ATOM
      1 C1          1.5610   -0.0230   -0.1270 c3        1 2RH      0.014100
      2 O1         -0.5960   -1.0140   -0.4890 o         1 2RH     -0.837800
      3 C2          2.0520    0.0990    1.3110 c3        1 2RH     -0.079400
      4 O2         -0.5460    1.1360    0.1410 o         1 2RH     -0.837800
      5 C3          0.0120    0.0460   -0.1570 c         1 2RH      0.892600
      6 O3          2.0440   -1.2280   -0.7020 oh        1 2RH     -0.649800
      7 C4          3.5620    0.2650    1.4070 c3        1 2RH     -0.071700
      8 C5          3.9800    1.6870    1.0980 c3        1 2RH     -0.082600
      9 C6          4.0550   -0.1340    2.7830 c3        1 2RH     -0.082600
     10 H1          1.9840    0.8080   -0.7540 h1        1 2RH      0.036700
     11 H2          1.7470   -0.8250    1.8680 hc        1 2RH      0.045200
     12 H2A         1.5350    0.9750    1.7810 hc        1 2RH      0.045200
     13 HO3         1.2840   -1.8290   -0.7710 ho        1 2RH      0.423000
     14 H4          4.0310   -0.4220    0.6450 hc        1 2RH      0.058700
     15 H5          3.5520    2.3940    1.8490 hc        1 2RH      0.020867
     16 H5A         5.0930    1.7800    1.1180 hc        1 2RH      0.020867
     17 H5B         3.6150    1.9850    0.0860 hc        1 2RH      0.020867
     18 H6          3.8210   -1.2070    2.9830 hc        1 2RH      0.020867
     19 H6A         3.5630    0.4870    3.5700 hc        1 2RH      0.020867
     20 H6B         5.1600    0.0080    2.8600 hc        1 2RH      0.020867
@<TRIPOS>BOND
     1    1    3 1   
     2    1    5 1   
     3    1    6 1   
     4    1   10 1   
     5    2    5 1   
     6    3    7 1   
     7    3   11 1   
     8    3   12 1   
     9    4    5 1   
    10    6   13 1   
    11    7    8 1   
    12    7    9 1   
    13    7   14 1   
    14    8   15 1   
    15    8   16 1   
    16    8   17 1   
    17    9   18 1   
    18    9   19 1   
    19    9   20 1   
@<TRIPOS>SUBSTRUCTURE
     1 2RH         1 TEMP              0 ****  ****    0 ROOT
