@<TRIPOS>MOLECULE
molecule
   59    63     1     0     0
SMALL
bcc


@<TRIPOS>ATOM
      1 C01          0.0000     0.0000     0.0000 c3         1 2RJ      -0.044800
      2 C02          1.5070     0.0000     0.0000 ca         1 2RJ      -0.077300
      3 C03          2.1970     0.0000     1.1970 ca         1 2RJ      -0.073300
      4 C04          3.5840    -0.0000     1.1970 ca         1 2RJ       0.109100
      5 C05          4.2750    -0.0020    -0.0060 ca         1 2RJ      -0.118000
      6 C06          3.5810    -0.0020    -1.2000 ca         1 2RJ      -0.124000
      7 C07          2.1980    -0.0070    -1.1970 ca         1 2RJ      -0.118000
      8 O08          4.2660     0.0010     2.3730 os         1 2RJ      -0.323400
      9 C09          4.4120    -1.1780     3.0240 ca         1 2RJ       0.913300
     10 N10          3.9830    -2.2910     2.4470 nb         1 2RJ      -0.798000
     11 C11          4.1060    -3.4640     3.0480 ca         1 2RJ       0.498200
     12 C12          4.6940    -3.5250     4.2990 ca         1 2RJ      -0.441600
     13 C13          5.1390    -2.3320     4.8840 ca         1 2RJ       0.595800
     14 N14          4.9850    -1.1880     4.2150 nb         1 2RJ      -0.735000
     15 C15          5.7730    -2.3430     6.2140 cc         1 2RJ      -0.314100
     16 C16          6.7250    -1.4570     6.6900 cd         1 2RJ       0.441800
     17 N17          7.0270    -1.8290     7.9460 nd         1 2RJ      -0.696000
     18 C18          6.3260    -2.8810     8.2720 cc         1 2RJ       0.425400
     19 N19          5.5330    -3.2320     7.2400 na         1 2RJ      -0.167900
     20 C20          4.5980    -4.3590     7.2100 c3         1 2RJ       0.033000
     21 C21          3.6480    -4.2680     8.4080 c3         1 2RJ      -0.091400
     22 C22          2.7130    -5.4790     8.4040 c3         1 2RJ       0.159300
     23 N23          3.5070    -6.7120     8.4780 n7         1 2RJ      -0.819200
     24 C24          4.3910    -6.8450     7.3140 c3         1 2RJ       0.159300
     25 C25          5.3770    -5.6740     7.2850 c3         1 2RJ      -0.091400
     26 C26          7.3040    -0.3110     5.9510 ca         1 2RJ      -0.119500
     27 C27          7.5150    -0.4020     4.5740 ca         1 2RJ      -0.065000
     28 C28          8.0540     0.6680     3.8900 ca         1 2RJ      -0.174000
     29 C29          8.3860     1.8310     4.5680 ca         1 2RJ       0.136900
     30 C30          8.1790     1.9240     5.9350 ca         1 2RJ      -0.174000
     31 C31          7.6340     0.8630     6.6260 ca         1 2RJ      -0.065000
     32 F32          8.9150     2.8760     3.8940 f          1 2RJ      -0.145900
     33 C33          1.4440     0.0020     2.5030 c3         1 2RJ      -0.052800
     34 H011        -0.3610    -0.0820    -1.0180 hc         1 2RJ       0.044367
     35 H013        -0.3610    -0.8400     0.5800 hc         1 2RJ       0.044367
     36 H012        -0.3610     0.9230     0.4380 hc         1 2RJ       0.044367
     37 H051         5.3580     0.0000    -0.0090 ha         1 2RJ       0.142000
     38 H061         4.1200    -0.0050    -2.1390 ha         1 2RJ       0.135000
     39 H071         1.6550    -0.0070    -2.1350 ha         1 2RJ       0.132000
     40 H111         3.7510    -4.3670     2.5660 h4         1 2RJ       0.031100
     41 H121         4.8060    -4.4710     4.8140 ha         1 2RJ       0.149000
     42 H181         6.3700    -3.3890     9.2270 h5         1 2RJ       0.070100
     43 H201         4.0220    -4.3340     6.2920 h1         1 2RJ       0.082700
     44 H212         3.0620    -3.3600     8.3350 hc         1 2RJ       0.062950
     45 H211         4.2240    -4.2600     9.3250 hc         1 2RJ       0.062950
     46 H222         2.0520    -5.4250     9.2610 h1         1 2RJ       0.038200
     47 H221         2.1300    -5.4810     7.4910 h1         1 2RJ       0.038200
     48 H231         2.8930    -7.5020     8.5230 hn         1 2RJ       0.361800
     49 H241         3.7970    -6.8380     6.4080 h1         1 2RJ       0.038200
     50 H242         4.9400    -7.7760     7.3840 h1         1 2RJ       0.038200
     51 H251         6.0170    -5.7640     6.4160 hc         1 2RJ       0.062950
     52 H252         5.9780    -5.6860     8.1860 hc         1 2RJ       0.062950
     53 H271         7.2560    -1.3100     4.0440 ha         1 2RJ       0.141500
     54 H281         8.2190     0.6000     2.8220 ha         1 2RJ       0.142500
     55 H301         8.4370     2.8360     6.4600 ha         1 2RJ       0.142500
     56 H311         7.4720     0.9380     7.6950 ha         1 2RJ       0.141500
     57 H333         1.0450    -0.9880     2.6910 hc         1 2RJ       0.049367
     58 H332         0.6300     0.7150     2.4490 hc         1 2RJ       0.049367
     59 H331         2.1150     0.2800     3.3060 hc         1 2RJ       0.049367
@<TRIPOS>BOND
     1     1     2 1
     2     7     2 ar
     3     7     6 ar
     4     2     3 ar
     5    24    23 1
     6    24    25 1
     7    23    22 1
     8     6     5 ar
     9    25    20 1
    10     3    33 1
    11     3     4 ar
    12    22    21 1
    13     5     4 ar
    14     4     8 1
    15    20    21 1
    16    20    19 1
    17     8     9 1
    18    19    18 1
    19    19    15 1
    20    18    17 2
    21    14     9 ar
    22    14    13 ar
    23     9    10 ar
    24    17    16 1
    25    15    13 1
    26    15    16 2
    27    13    12 ar
    28    16    26 1
    29    10    11 ar
    30    26    31 ar
    31    26    27 ar
    32    12    11 ar
    33    31    30 ar
    34    27    28 ar
    35    30    29 ar
    36    28    29 ar
    37    29    32 1
    38     1    34 1
    39     1    35 1
    40     1    36 1
    41     5    37 1
    42     6    38 1
    43     7    39 1
    44    11    40 1
    45    12    41 1
    46    18    42 1
    47    20    43 1
    48    21    44 1
    49    21    45 1
    50    22    46 1
    51    22    47 1
    52    23    48 1
    53    24    49 1
    54    24    50 1
    55    25    51 1
    56    25    52 1
    57    27    53 1
    58    28    54 1
    59    30    55 1
    60    31    56 1
    61    33    57 1
    62    33    58 1
    63    33    59 1
@<TRIPOS>SUBSTRUCTURE
     1 2RJ         1 TEMP              0 ****  ****    0 ROOT
