@<TRIPOS>MOLECULE
2RK
   51    55     1     0     0
SMALL
bcc


@<TRIPOS>ATOM
      1 C01          0.0000     0.0000     0.0000 c3         1 2RK      -0.021400
      2 C02          1.5300     0.0000     0.0000 c3         1 2RK       0.148300
      3 N03          2.0210     0.0000     1.3840 n7         1 2RK      -0.574200
      4 C04          1.5880    -1.2060     2.1010 c3         1 2RK       0.148300
      5 C05          0.0580    -1.2420     2.1630 c3         1 2RK      -0.021400
      6 C06         -0.5060    -1.2410     0.7400 c3         1 2RK      -0.063000
      7 C07         -2.0110    -1.2150     0.7950 cc         1 2RK       0.264800
      8 N08         -2.7480    -0.1400     0.7280 nd         1 2RK      -0.624000
      9 C09         -4.0460    -0.4760     0.8060 cd         1 2RK       0.413300
     10 C10         -5.1970     0.4540     0.7690 ca         1 2RK      -0.149000
     11 C11         -6.4400     0.0110     0.3110 ca         1 2RK      -0.120000
     12 C12         -7.5000     0.8680     0.2760 ca         1 2RK      -0.144000
     13 C13         -7.3470     2.1990     0.6980 ca         1 2RK       0.106000
     14 C14         -8.3350     3.2930     0.7490 ce         1 2RK      -0.285600
     15 C15         -7.6450     4.5230     1.2860 c3         1 2RK       0.076800
     16 C16         -6.1940     4.0940     1.5480 c3         1 2RK       0.045900
     17 C17         -6.1040     2.6380     1.1540 ca         1 2RK      -0.165300
     18 C18         -5.0440     1.7740     1.1950 ca         1 2RK      -0.018000
     19 N19         -9.5810     3.2120     0.3950 ne         1 2RK       0.111700
     20 O20        -10.0260     2.1590    -0.0260 o          1 2RK      -0.469300
     21 C21         -4.1080    -1.8590     0.9300 cd         1 2RK      -0.467600
     22 C22         -5.3170    -2.6820     1.0440 cc         1 2RK       0.126000
     23 C23         -5.3190    -4.0240     0.6150 cc         1 2RK      -0.118000
     24 C24         -6.4550    -4.7560     0.7350 cd         1 2RK      -0.228800
     25 N25         -7.5710    -4.2150     1.2580 na         1 2RK       0.469900
     26 C26         -7.6040    -2.9360     1.6780 cd         1 2RK      -0.228800
     27 C27         -6.5020    -2.1490     1.5920 cc         1 2RK      -0.118000
     28 N28         -2.8020    -2.3010     0.9140 na         1 2RK       0.231100
     29 H011        -0.3600    -0.0180    -1.0210 hc         1 2RK       0.032200
     30 H012        -0.3600     0.8900     0.5010 hc         1 2RK       0.032200
     31 H022         1.8900     0.8860    -0.5090 h1         1 2RK       0.005200
     32 H021         1.8900    -0.8860    -0.5090 h1         1 2RK       0.005200
     33 H031         3.0210     0.0460     1.3840 hn         1 2RK       0.252800
     34 H041         1.9470    -2.0840     1.5780 h1         1 2RK       0.005200
     35 H042         1.9880    -1.1890     3.1070 h1         1 2RK       0.005200
     36 H051        -0.3020    -0.3690     2.6940 hc         1 2RK       0.032200
     37 H052        -0.2600    -2.1420     2.6760 hc         1 2RK       0.032200
     38 H061        -0.1730    -2.1310     0.2200 hc         1 2RK       0.020700
     39 H111        -6.5420    -0.9910    -0.0910 ha         1 2RK       0.090000
     40 H121        -8.4630     0.5220    -0.0790 ha         1 2RK       0.139000
     41 H152        -8.1090     4.8220     2.2180 hc         1 2RK       0.006700
     42 H151        -7.6610     5.3040     0.5360 hc         1 2RK       0.006700
     43 H162        -5.5280     4.6770     0.9240 hc         1 2RK       0.011200
     44 H161        -5.9750     4.1940     2.6040 hc         1 2RK       0.011200
     45 H181        -4.0820     2.1160     1.5600 ha         1 2RK       0.107000
     46 H231        -4.4240    -4.4650     0.1930 ha         1 2RK       0.165500
     47 H241        -6.4630    -5.7890     0.4070 h4         1 2RK       0.153500
     48 H261        -8.5180    -2.5330     2.0960 h4         1 2RK       0.153500
     49 H271        -6.5340    -1.1210     1.9320 ha         1 2RK       0.165500
     50 H1          -8.3970    -4.7750     1.3340 hn         1 2RK       0.121700
     51 H2          -2.4970    -3.2510     0.9840 hn         1 2RK       0.120700
@<TRIPOS>BOND
     1     1     2 1   
     2     1     6 1   
     3     1    29 1   
     4     1    30 1   
     5     2     3 1   
     6     2    31 1   
     7     2    32 1   
     8     3     4 1   
     9     3    33 1   
    10     4     5 1   
    11     4    34 1   
    12     4    35 1   
    13     5     6 1   
    14     5    36 1   
    15     5    37 1   
    16     6     7 1   
    17     6    38 1   
    18     7     8 2   
    19     7    28 1   
    20     8     9 1   
    21     9    10 2   
    22     9    21 1   
    23    10    11 ar  
    24    10    18 ar  
    25    11    12 ar  
    26    11    39 1   
    27    12    13 ar  
    28    12    40 1   
    29    13    14 2   
    30    13    17 ar  
    31    14    15 1   
    32    14    19 1   
    33    15    16 1   
    34    15    41 1   
    35    15    42 1   
    36    16    17 1   
    37    16    43 1   
    38    16    44 1   
    39    17    18 ar  
    40    18    45 1   
    41    19    20 2   
    42    21    22 2   
    43    21    28 1   
    44    22    23 1   
    45    22    27 1   
    46    23    24 2   
    47    23    46 1   
    48    24    25 1   
    49    24    47 1   
    50    25    26 1   
    51    25    50 1   
    52    26    27 2   
    53    26    48 1   
    54    27    49 1   
    55    28    51 1   
@<TRIPOS>SUBSTRUCTURE
     1 2RK         1 TEMP              0 ****  ****    0 ROOT
