@<TRIPOS>MOLECULE
2RL
   57    61     1     0     0
SMALL
bcc


@<TRIPOS>ATOM
      1 C1           0.0000     0.0000     0.0000 ca         1 2RL       0.155100
      2 C2           1.3640     0.0000     0.0000 ca         1 2RL      -0.259300
      3 C3           2.0630     0.0000     1.2190 ca         1 2RL       0.418600
      4 C4           1.3340     0.0020     2.4330 ca         1 2RL      -0.163300
      5 C5          -0.0690     0.0010     2.4040 ca         1 2RL      -0.169000
      6 C6          -0.7200     0.0010     1.2040 ca         1 2RL       0.127100
      7 N7           3.4010     0.0000     1.2430 nb         1 2RL      -0.611000
      8 C8           4.0690     0.0000     2.3730 ca         1 2RL       0.450200
      9 C9           3.4250     0.0010     3.6040 ca         1 2RL      -0.345300
     10 C10          2.0420     0.0030     3.6550 ca         1 2RL       0.191100
     11 O11          1.3860     0.0040     4.8410 os         1 2RL      -0.213200
     12 C12          2.1270    -0.0730     5.9800 ca         1 2RL       0.110100
     13 C13          2.7690     1.0570     6.4650 ca         1 2RL      -0.144000
     14 C14          3.5220     0.9800     7.6260 ca         1 2RL       0.122100
     15 C15          3.6290    -0.2350     8.2990 ca         1 2RL      -0.136400
     16 C16          2.9880    -1.3610     7.8110 ca         1 2RL      -0.099000
     17 C17          2.2330    -1.2810     6.6550 ca         1 2RL      -0.118000
     18 O25          4.1520     2.0910     8.0930 os         1 2RL      -0.298900
     19 C26          4.5390     2.1100     9.4680 c3         1 2RL       0.204400
     20 C27          5.2920     0.8110     9.7900 c3         1 2RL      -0.018000
     21 N28          4.3900    -0.3130     9.4800 n          1 2RL      -0.002000
     22 O33         -2.0790     0.0000     1.1760 os         1 2RL      -0.293900
     23 O34         -0.6710     0.0040    -1.1820 os         1 2RL      -0.294900
     24 C35          4.2970    -1.3780    10.3000 c          1 2RL       0.579100
     25 O36          3.5060    -2.2690    10.0530 o          1 2RL      -0.682100
     26 N37          5.0820    -1.4580    11.3930 ns         1 2RL      -0.049100
     27 C38          4.8840    -2.4850    12.3240 ca         1 2RL      -0.081400
     28 C39          4.2860    -3.6750    11.9290 ca         1 2RL      -0.126500
     29 C40          4.0930    -4.6870    12.8480 ca         1 2RL      -0.077000
     30 C41          4.4950    -4.5170    14.1610 ca         1 2RL      -0.050600
     31 C42          5.0920    -3.3330    14.5570 ca         1 2RL      -0.077000
     32 C43          5.2920    -2.3190    13.6410 ca         1 2RL      -0.126500
     33 Cl48         4.2510    -5.7920    15.3140 cl         1 2RL      -0.029400
     34 C49         -2.7550     0.0020     2.4360 c3         1 2RL       0.240700
     35 C53          0.1160     0.0040    -2.3750 c3         1 2RL       0.239700
     36 H2           1.9070    -0.0010    -0.9370 ha         1 2RL       0.140000
     37 H5          -0.6330     0.0020     3.3290 ha         1 2RL       0.138000
     38 H8           5.1520    -0.0010     2.3450 h4         1 2RL      -0.025900
     39 H9           4.0030     0.0020     4.5200 ha         1 2RL       0.135000
     40 H13          2.6400     2.0090     5.9660 ha         1 2RL       0.132000
     41 H16          3.0720    -2.3040     8.3380 ha         1 2RL       0.183000
     42 H17          1.6930    -2.1490     6.3000 ha         1 2RL       0.121000
     43 H26          3.6560     2.1800    10.0920 h1         1 2RL       0.025200
     44 H26A         5.1880     2.9580     9.6500 h1         1 2RL       0.025200
     45 H27          6.1710     0.7450     9.1610 h1         1 2RL       0.037200
     46 H27A         5.5330     0.7920    10.8450 h1         1 2RL       0.037200
     47 HN37         5.8350    -0.8100    11.5160 hn         1 2RL       0.171500
     48 H39          3.9710    -3.8090    10.9010 ha         1 2RL       0.140000
     49 H40          3.6260    -5.6150    12.5410 ha         1 2RL       0.115000
     50 H42          5.4080    -3.2040    15.5850 ha         1 2RL       0.115000
     51 H43          5.7600    -1.3930    13.9510 ha         1 2RL       0.140000
     52 H49         -2.4750    -0.8820     2.9960 h1         1 2RL      -0.000967
     53 H49A        -2.4750     0.8870     2.9940 h1         1 2RL      -0.000967
     54 H49B        -3.8250     0.0020     2.2710 h1         1 2RL      -0.000967
     55 H53          0.7390    -0.8820    -2.3960 h1         1 2RL      -0.000300
     56 H53A         0.7420     0.8870    -2.3940 h1         1 2RL      -0.000300
     57 H53B        -0.5380     0.0060    -3.2390 h1         1 2RL      -0.000300
@<TRIPOS>BOND
     1     1     2 ar  
     2     1     6 ar  
     3     1    23 1   
     4     2     3 ar  
     5     2    36 1   
     6     3     4 ar  
     7     3     7 ar  
     8     4     5 ar  
     9     4    10 ar  
    10     5     6 ar  
    11     5    37 1   
    12     6    22 1   
    13     7     8 ar  
    14     8     9 ar  
    15     8    38 1   
    16     9    10 ar  
    17     9    39 1   
    18    10    11 1   
    19    11    12 1   
    20    12    13 ar  
    21    12    17 ar  
    22    13    14 ar  
    23    13    40 1   
    24    14    15 ar  
    25    14    18 1   
    26    15    16 ar  
    27    15    21 1   
    28    16    17 ar  
    29    16    41 1   
    30    17    42 1   
    31    18    19 1   
    32    19    20 1   
    33    19    43 1   
    34    19    44 1   
    35    20    21 1   
    36    20    45 1   
    37    20    46 1   
    38    21    24 1   
    39    22    34 1   
    40    23    35 1   
    41    24    25 2   
    42    24    26 1   
    43    26    27 1   
    44    26    47 1   
    45    27    28 ar  
    46    27    32 ar  
    47    28    29 ar  
    48    28    48 1   
    49    29    30 ar  
    50    29    49 1   
    51    30    31 ar  
    52    30    33 1   
    53    31    32 ar  
    54    31    50 1   
    55    32    51 1   
    56    34    52 1   
    57    34    53 1   
    58    34    54 1   
    59    35    55 1   
    60    35    56 1   
    61    35    57 1   
@<TRIPOS>SUBSTRUCTURE
     1 2RL         1 TEMP              0 ****  ****    0 ROOT
