@<TRIPOS>MOLECULE
molecule
   46    49     1     0     0
SMALL
bcc


@<TRIPOS>ATOM
      1 C1           0.0000     0.0000     0.0000 cc         1 2RM      -0.154000
      2 C2           1.3990     0.0000     0.0000 cc         1 2RM      -0.203000
      3 C3           1.8060     0.0000     1.3220 cd         1 2RM      -0.071300
      4 C4           3.0920     0.0010     1.9090 cd         1 2RM      -0.090000
      5 C5           3.2100     0.0020     3.2600 cc         1 2RM      -0.135000
      6 C6           1.9930     0.0020     4.0770 cc         1 2RM      -0.199600
      7 C7           0.7740     0.0020     3.4690 cd         1 2RM       0.001700
      8 N8           0.6750     0.0000     2.1070 na         1 2RM       0.058700
      9 C9          -0.4180     0.0060     1.2860 cd         1 2RM      -0.188100
     10 C10          2.0890     0.0020     5.5490 c          1 2RM       0.689700
     11 O11          1.0770     0.0020     6.2230 o          1 2RM      -0.617100
     12 N12          3.2980     0.0030     6.1470 ns         1 2RM      -0.580900
     13 C13          3.3920     0.0030     7.6070 c3         1 2RM       0.155300
     14 C14          4.8420     0.0040     8.0170 ca         1 2RM      -0.061300
     15 C15          5.5080     1.2000     8.2040 ca         1 2RM      -0.134000
     16 C16          6.8390     1.2010     8.5800 ca         1 2RM      -0.030000
     17 C17          7.5040     0.0030     8.7670 ca         1 2RM      -0.295500
     18 C18          6.8380    -1.1940     8.5800 ca         1 2RM      -0.030000
     19 C19          5.5060    -1.1940     8.2110 ca         1 2RM      -0.134000
     20 S20          9.2000     0.0040     9.2430 sy         1 2RM       1.293600
     21 O21          9.7330    -1.2460     8.8290 o          1 2RM      -0.616800
     22 O22          9.7340     1.2530     8.8270 o          1 2RM      -0.616800
     23 C23          9.2470     0.0040    11.0050 ca         1 2RM      -0.248500
     24 C24          9.2650    -1.1920    11.6960 ca         1 2RM      -0.085500
     25 C25          9.3010    -1.1920    13.0800 ca         1 2RM       0.142900
     26 C26          9.3200     0.0060    13.7720 ca         1 2RM      -0.160000
     27 C27          9.3020     1.2040    13.0790 ca         1 2RM       0.142900
     28 C28          9.2710     1.2020    11.6950 ca         1 2RM      -0.085500
     29 F29          9.3250     2.3750    13.7530 f          1 2RM      -0.127400
     30 F30          9.3190    -2.3630    13.7550 f          1 2RM      -0.127400
     31 H1          -0.6370    -0.0030    -0.8760 ha         1 2RM       0.155000
     32 H2           2.0430    -0.0040    -0.8720 ha         1 2RM       0.156000
     33 H3           3.9780     0.0010     1.2850 ha         1 2RM       0.149000
     34 H4           4.1870     0.0010     3.7280 ha         1 2RM       0.133000
     35 H5          -0.1260     0.0020     4.0720 h4         1 2RM       0.186000
     36 H6          -1.4510     0.0080     1.6130 h4         1 2RM       0.174000
     37 H7           4.1300     0.0040     5.5910 hn         1 2RM       0.322500
     38 H8           2.9060    -0.8820     8.0000 h1         1 2RM       0.064700
     39 H9           2.9050     0.8870     8.0010 h1         1 2RM       0.064700
     40 H10          4.9860     2.1380     8.0580 ha         1 2RM       0.145500
     41 H11          7.3600     2.1390     8.7260 ha         1 2RM       0.154000
     42 H12          7.3590    -2.1320     8.7290 ha         1 2RM       0.154000
     43 H13          4.9850    -2.1320     8.0640 ha         1 2RM       0.145500
     44 H14          9.2500    -2.1300    11.1540 ha         1 2RM       0.169000
     45 H15          9.3460     0.0060    14.8550 ha         1 2RM       0.166000
     46 H16          9.2570     2.1400    11.1520 ha         1 2RM       0.169000
@<TRIPOS>BOND
     1    29    27 1   
     2    27    28 ar  
     3    27    26 ar  
     4    28    23 ar  
     5    26    25 ar  
     6    22    20 2   
     7    23    24 ar  
     8    23    20 1   
     9    25    24 ar  
    10    25    30 1   
    11    20    21 2   
    12    20    17 1   
    13    18    17 ar  
    14    18    19 ar  
    15    17    16 ar  
    16    19    14 ar  
    17    16    15 ar  
    18    14    15 ar  
    19    14    13 1   
    20    13    12 1   
    21    11    10 2   
    22    12    10 1   
    23    10     6 1   
    24     6     5 1   
    25     6     7 2   
    26     5     4 2   
    27     7     8 1   
    28     4     3 1   
    29     8     3 1   
    30     8     9 1   
    31     3     2 2   
    32     9     1 2   
    33     2     1 1   
    34     1    31 1   
    35     2    32 1   
    36     4    33 1   
    37     5    34 1   
    38     7    35 1   
    39     9    36 1   
    40    12    37 1   
    41    13    38 1   
    42    13    39 1   
    43    15    40 1   
    44    16    41 1   
    45    18    42 1   
    46    19    43 1   
    47    24    44 1   
    48    26    45 1   
    49    28    46 1   
@<TRIPOS>SUBSTRUCTURE
     1 2RM         1 TEMP              0 ****  ****    0 ROOT
