@<TRIPOS>MOLECULE
2RM
   46    49     1     0     0
SMALL
bcc


@<TRIPOS>ATOM
      1 C1           0.0000     0.0000     0.0000 cc         1 2RM      -0.106000
      2 C2           1.3990     0.0000     0.0000 cc         1 2RM      -0.182000
      3 C3           1.8060     0.0000     1.3220 cd         1 2RM      -0.273300
      4 C4           3.0920     0.0010     1.9090 cd         1 2RM      -0.023000
      5 C5           3.2100     0.0020     3.2600 cc         1 2RM      -0.140000
      6 C6           1.9930     0.0020     4.0770 cc         1 2RM      -0.166600
      7 C7           0.7740     0.0020     3.4690 cd         1 2RM      -0.195300
      8 N8           0.6750     0.0000     2.1070 na         1 2RM       0.638700
      9 C9          -0.4180     0.0060     1.2860 cd         1 2RM      -0.388100
     10 C10          2.0890     0.0020     5.5490 c          1 2RM       0.606700
     11 O11          1.0770     0.0020     6.2230 o          1 2RM      -0.655100
     12 N12          3.2980     0.0030     6.1470 ns         1 2RM      -0.194900
     13 C13          3.3920     0.0030     7.6070 c3         1 2RM       0.105300
     14 C14          4.8420     0.0040     8.0170 ca         1 2RM      -0.073300
     15 C15          5.5080     1.2000     8.2040 ca         1 2RM      -0.114000
     16 C16          6.8390     1.2010     8.5800 ca         1 2RM       0.002000
     17 C17          7.5040     0.0030     8.7670 ca         1 2RM      -0.143500
     18 C18          6.8380    -1.1940     8.5800 ca         1 2RM       0.002000
     19 C19          5.5060    -1.1940     8.2110 ca         1 2RM      -0.114000
     20 S20          9.2000     0.0040     9.2430 sy         1 2RM       0.966600
     21 O21          9.7330    -1.2460     8.8290 o          1 2RM      -0.583800
     22 O22          9.7340     1.2530     8.8270 o          1 2RM      -0.583800
     23 C23          9.2470     0.0040    11.0050 ca         1 2RM      -0.096500
     24 C24          9.2650    -1.1920    11.6960 ca         1 2RM      -0.045500
     25 C25          9.3010    -1.1920    13.0800 ca         1 2RM       0.106900
     26 C26          9.3200     0.0060    13.7720 ca         1 2RM      -0.119000
     27 C27          9.3020     1.2040    13.0790 ca         1 2RM       0.106900
     28 C28          9.2710     1.2020    11.6950 ca         1 2RM      -0.045500
     29 F29          9.3250     2.3750    13.7530 f          1 2RM      -0.118400
     30 F30          9.3190    -2.3630    13.7550 f          1 2RM      -0.118400
     31 H1          -0.6370    -0.0030    -0.8760 ha         1 2RM       0.125000
     32 H2           2.0430    -0.0040    -0.8720 ha         1 2RM       0.131000
     33 H3           3.9780     0.0010     1.2850 ha         1 2RM       0.115000
     34 H4           4.1870     0.0010     3.7280 ha         1 2RM       0.111000
     35 H5          -0.1260     0.0020     4.0720 h4         1 2RM       0.158000
     36 H6          -1.4510     0.0080     1.6130 h4         1 2RM       0.153000
     37 H7           4.1300     0.0040     5.5910 hn         1 2RM       0.185500
     38 H8           2.9060    -0.8820     8.0000 h1         1 2RM       0.032700
     39 H9           2.9050     0.8870     8.0010 h1         1 2RM       0.032700
     40 H10          4.9860     2.1380     8.0580 ha         1 2RM       0.117000
     41 H11          7.3600     2.1390     8.7260 ha         1 2RM       0.125000
     42 H12          7.3590    -2.1320     8.7290 ha         1 2RM       0.125000
     43 H13          4.9850    -2.1320     8.0640 ha         1 2RM       0.117000
     44 H14          9.2500    -2.1300    11.1540 ha         1 2RM       0.141000
     45 H15          9.3460     0.0060    14.8550 ha         1 2RM       0.136000
     46 H16          9.2570     2.1400    11.1520 ha         1 2RM       0.141000
@<TRIPOS>BOND
     1     1     2 1   
     2     1     9 2   
     3     1    31 1   
     4     2     3 2   
     5     2    32 1   
     6     3     4 1   
     7     3     8 1   
     8     4     5 2   
     9     4    33 1   
    10     5     6 1   
    11     5    34 1   
    12     6     7 2   
    13     6    10 1   
    14     7     8 1   
    15     7    35 1   
    16     8     9 1   
    17     9    36 1   
    18    10    11 2   
    19    10    12 1   
    20    12    13 1   
    21    12    37 1   
    22    13    14 1   
    23    13    38 1   
    24    13    39 1   
    25    14    15 ar  
    26    14    19 ar  
    27    15    16 ar  
    28    15    40 1   
    29    16    17 ar  
    30    16    41 1   
    31    17    18 ar  
    32    17    20 1   
    33    18    19 ar  
    34    18    42 1   
    35    19    43 1   
    36    20    21 2   
    37    20    22 2   
    38    20    23 1   
    39    23    24 ar  
    40    23    28 ar  
    41    24    25 ar  
    42    24    44 1   
    43    25    26 ar  
    44    25    30 1   
    45    26    27 ar  
    46    26    45 1   
    47    27    28 ar  
    48    27    29 1   
    49    28    46 1   
@<TRIPOS>SUBSTRUCTURE
     1 2RM         1 TEMP              0 ****  ****    0 ROOT
