@<TRIPOS>MOLECULE
2RN
   39    42     1     0     0
SMALL
bcc


@<TRIPOS>ATOM
      1 C01        -0.0670   -0.0250    0.0710 ca        1 2RN     -0.117000
      2 C02         1.2430   -0.5030    0.0920 ca        1 2RN     -0.132000
      3 C03         1.9800   -0.4840    1.2760 ca        1 2RN     -0.105500
      4 C04         1.4010    0.0180    2.4500 ca        1 2RN     -0.128500
      5 C05         0.0870    0.5050    2.4250 ca        1 2RN     -0.105500
      6 C06        -0.6420    0.4790    1.2380 ca        1 2RN     -0.132000
      7 C07         2.1810    0.0350    3.6870 cc        1 2RN      0.466000
      8 N08         1.6000   -0.0980    4.9590 na        1 2RN     -0.300900
      9 C09         2.6320   -0.0440    5.9010 cc        1 2RN     -0.136600
     10 C10         3.8320    0.1160    5.1520 cd        1 2RN      0.361800
     11 N11         3.5310    0.1640    3.7860 nd        1 2RN     -0.646000
     12 C12         5.1930    0.2000    5.6500 ca        1 2RN     -0.070500
     13 C13         5.5960   -0.5250    6.7820 ca        1 2RN     -0.230800
     14 C14         6.9290   -0.4180    7.2120 ca        1 2RN      0.384700
     15 N15         7.8540    0.3450    6.5980 nb        1 2RN     -0.665000
     16 C16         7.4560    1.0320    5.5100 ca        1 2RN      0.384700
     17 C17         6.1480    0.9940    4.9960 ca        1 2RN     -0.230800
     18 C18         2.3870   -0.1170    7.3300 ca        1 2RN      0.015000
     19 C19         3.0930    0.7260    8.1990 ca        1 2RN     -0.193000
     20 C20         2.8360    0.6640    9.5740 ca        1 2RN      0.128100
     21 C21         1.8820   -0.2280   10.0950 ca        1 2RN     -0.150000
     22 C22         1.1930   -1.0580    9.2180 ca        1 2RN     -0.097000
     23 C23         1.4360   -1.0080    7.8450 ca        1 2RN     -0.163000
     24 O24         3.4900    1.4610   10.4840 oh        1 2RN     -0.495100
     25 H1         -0.6460   -0.0430   -0.8640 ha        1 2RN      0.136000
     26 H2          1.7000   -0.8960   -0.8280 ha        1 2RN      0.136500
     27 H3          3.0150   -0.8580    1.2880 ha        1 2RN      0.142500
     28 H4         -0.3740    0.9250    3.3310 ha        1 2RN      0.142500
     29 H5         -1.6730    0.8630    1.2220 ha        1 2RN      0.136500
     30 H6          0.6410   -0.2030    5.1600 hn        1 2RN      0.307700
     31 H8          4.8840   -1.1650    7.3210 ha        1 2RN      0.155000
     32 H9          7.2790   -0.9780    8.0980 h4        1 2RN      0.021600
     33 H10         8.2330    1.6470    5.0210 h4        1 2RN      0.021600
     34 H11         5.8860    1.5700    4.0980 ha        1 2RN      0.155000
     35 H12         3.8450    1.4230    7.7990 ha        1 2RN      0.151000
     36 H13         1.6990   -0.2560   11.1780 ha        1 2RN      0.155000
     37 H14         0.4470   -1.7640    9.6130 ha        1 2RN      0.138000
     38 H15         0.8900   -1.6860    7.1730 ha        1 2RN      0.134000
     39 H16         4.1260    2.0100   10.0020 ho        1 2RN      0.424000
@<TRIPOS>BOND
     1    1    2 ar  
     2    1    6 ar  
     3    1   25 1   
     4    2    3 ar  
     5    2   26 1   
     6    3    4 ar  
     7    3   27 1   
     8    4    5 ar  
     9    4    7 1   
    10    5    6 ar  
    11    5   28 1   
    12    6   29 1   
    13    7    8 1   
    14    7   11 2   
    15    8    9 1   
    16    8   30 1   
    17    9   10 2   
    18    9   18 1   
    19   10   11 1   
    20   10   12 1   
    21   12   13 ar  
    22   12   17 ar  
    23   13   14 ar  
    24   13   31 1   
    25   14   15 ar  
    26   14   32 1   
    27   15   16 ar  
    28   16   17 ar  
    29   16   33 1   
    30   17   34 1   
    31   18   19 ar  
    32   18   23 ar  
    33   19   20 ar  
    34   19   35 1   
    35   20   21 ar  
    36   20   24 1   
    37   21   22 ar  
    38   21   36 1   
    39   22   23 ar  
    40   22   37 1   
    41   23   38 1   
    42   24   39 1   
@<TRIPOS>SUBSTRUCTURE
     1 2RN         1 TEMP              0 ****  ****    0 ROOT
