@<TRIPOS>MOLECULE
molecule
   39    42     1     0     0
SMALL
bcc


@<TRIPOS>ATOM
      1 C01          0.0000     0.0000     0.0000 ca         1 2RN      -0.120000
      2 C02          1.3840     0.0000     0.0000 ca         1 2RN      -0.127500
      3 C03          2.0780     0.0000     1.1920 ca         1 2RN      -0.106500
      4 C04          1.3800     0.0020     2.4010 ca         1 2RN      -0.116500
      5 C05         -0.0160     0.0030     2.3950 ca         1 2RN      -0.106500
      6 C06         -0.6970     0.0080     1.1960 ca         1 2RN      -0.127500
      7 C07          2.1160     0.0030     3.6830 cc         1 2RN       0.467000
      8 N08          1.5460    -0.0010     4.9240 na         1 2RN      -0.279900
      9 C09          2.5680     0.0000     5.8420 cc         1 2RN      -0.164600
     10 C10          3.7470     0.0060     5.1140 cd         1 2RN       0.383800
     11 N11          3.4230     0.0010     3.8100 nd         1 2RN      -0.671000
     12 C12          5.1190     0.0100     5.6720 ca         1 2RN      -0.071500
     13 C13          5.4520    -0.7970     6.7670 ca         1 2RN      -0.235300
     14 C14          6.7410    -0.7610     7.2540 ca         1 2RN       0.415200
     15 N15          7.6540     0.0170     6.7040 nb         1 2RN      -0.692000
     16 C16          7.3810     0.7930     5.6710 ca         1 2RN       0.415200
     17 C17          6.1190     0.8170     5.1170 ca         1 2RN      -0.235300
     18 C18          2.4380    -0.0020     7.3120 ca         1 2RN      -0.006000
     19 C19          3.1870     0.8870     8.0840 ca         1 2RN      -0.130000
     20 C20          3.0590     0.8780     9.4630 ca         1 2RN       0.108100
     21 C21          2.1870    -0.0120    10.0740 ca         1 2RN      -0.147000
     22 C22          1.4430    -0.8950     9.3110 ca         1 2RN      -0.115000
     23 C23          1.5590    -0.8910     7.9360 ca         1 2RN      -0.135000
     24 O24          3.7870     1.7420    10.2180 oh         1 2RN      -0.517100
     25 H1          -0.5400     0.0020    -0.9390 ha         1 2RN       0.132000
     26 H2           1.9240    -0.0040    -0.9390 ha         1 2RN       0.134000
     27 H3           3.1610    -0.0010     1.1900 ha         1 2RN       0.138500
     28 H4          -0.5630     0.0070     3.3300 ha         1 2RN       0.138500
     29 H5          -1.7800     0.0080     1.1900 ha         1 2RN       0.134000
     30 H6           0.5660    -0.0050     5.1270 hn         1 2RN       0.306700
     31 H8           4.7090    -1.4390     7.2240 ha         1 2RN       0.147500
     32 H9           7.0090    -1.3820     8.1010 h4         1 2RN       0.022600
     33 H10          8.1610     1.4160     5.2500 h4         1 2RN       0.022600
     34 H11          5.9020     1.4560     4.2700 ha         1 2RN       0.147500
     35 H12          3.8670     1.5820     7.6060 ha         1 2RN       0.155000
     36 H13          2.0910    -0.0180    11.1530 ha         1 2RN       0.143000
     37 H14          0.7630    -1.5860     9.7940 ha         1 2RN       0.137000
     38 H15          0.9750    -1.5830     7.3420 ha         1 2RN       0.133000
     39 H16          3.3220     2.5580    10.2980 ho         1 2RN       0.421000
@<TRIPOS>BOND
     1     6     5 ar  
     2     6     1 ar  
     3     5     4 ar  
     4     1     2 ar  
     5    24    20 1   
     6    21    20 ar  
     7    21    22 ar  
     8    20    19 ar  
     9     4     7 1   
    10     4     3 ar  
    11     8     7 1   
    12     8     9 1   
    13     2     3 ar  
    14    22    23 ar  
    15    19    18 ar  
    16    23    18 ar  
    17    18     9 1   
    18     7    11 2   
    19     9    10 2   
    20    11    10 1   
    21    10    12 1   
    22    12    17 ar  
    23    12    13 ar  
    24    17    16 ar  
    25    13    14 ar  
    26    16    15 ar  
    27    14    15 ar  
    28     1    25 1   
    29     2    26 1   
    30     3    27 1   
    31     5    28 1   
    32     6    29 1   
    33     8    30 1   
    34    13    31 1   
    35    14    32 1   
    36    16    33 1   
    37    17    34 1   
    38    19    35 1   
    39    21    36 1   
    40    22    37 1   
    41    23    38 1   
    42    24    39 1   
@<TRIPOS>SUBSTRUCTURE
     1 2RN         1 TEMP              0 ****  ****    0 ROOT
