@<TRIPOS>MOLECULE
molecule
   42    43     1     0     0
SMALL
bcc


@<TRIPOS>ATOM
      1 OAD          0.0000     0.0000     0.0000 o          1 2RO      -0.806800
      2 CAP          1.2140     0.0000     0.0000 c          1 2RO       0.879800
      3 OAG          1.8880     0.0000     1.1670 o          1 2RO      -0.806800
      4 CAS          1.9550    -0.0070    -1.2830 cc         1 2RO       0.041400
      5 NAN          3.3280     0.1170    -1.2940 ns         1 2RO      -0.428100
      6 CAU          4.0180     0.1120    -2.4470 c          1 2RO       0.799500
      7 OAE          5.2270     0.2240    -2.4140 o          1 2RO      -0.704500
      8 NAO          3.4050    -0.0120    -3.6380 ns         1 2RO      -0.568500
      9 CAV          2.0630    -0.1380    -3.7060 c          1 2RO       0.700700
     10 OAF          1.5060    -0.2510    -4.7820 o          1 2RO      -0.660500
     11 CAT          1.2880    -0.1420    -2.4600 cd         1 2RO      -0.280400
     12 CAM         -0.2130    -0.2800    -2.4840 c3         1 2RO      -0.004200
     13 CAL         -0.8510     1.1040    -2.6160 c3         1 2RO      -0.026100
     14 CAQ         -2.3500     0.9660    -2.6410 ca         1 2RO      -0.060300
     15 CAH         -3.0670     1.0030    -1.4600 ca         1 2RO      -0.120500
     16 CAJ         -4.4440     0.8750    -1.4830 ca         1 2RO      -0.137500
     17 CAR         -5.1040     0.7110    -2.6860 ca         1 2RO      -0.096300
     18 CAW         -6.6030     0.5710    -2.7110 c3         1 2RO      -0.017700
     19 CAB         -7.0150    -0.6560    -1.8940 c3         1 2RO      -0.078767
     20 CAC         -7.2420     1.8230    -2.1080 c3         1 2RO      -0.078767
     21 CAA         -7.0770     0.4030    -4.1560 c3         1 2RO      -0.078767
     22 CAK         -4.3860     0.6740    -3.8670 ca         1 2RO      -0.137500
     23 CAI         -3.0100     0.8070    -3.8460 ca         1 2RO      -0.120500
     24 H2           3.8190     0.2120    -0.4280 hn         1 2RO       0.376500
     25 H3           3.9480    -0.0120    -4.4790 hn         1 2RO       0.341500
     26 H4          -0.5480    -0.7460    -1.5650 hc         1 2RO       0.075200
     27 H5          -0.5050    -0.8940    -3.3270 hc         1 2RO       0.075200
     28 H6          -0.5590     1.7180    -1.7730 hc         1 2RO       0.050200
     29 H7          -0.5150     1.5700    -3.5350 hc         1 2RO       0.050200
     30 H8          -2.5510     1.1320    -0.5160 ha         1 2RO       0.145500
     31 H9          -5.0060     0.9050    -0.5570 ha         1 2RO       0.120000
     32 H10         -8.0730    -0.8430    -2.0310 hc         1 2RO       0.032144
     33 H11         -6.8140    -0.4750    -0.8450 hc         1 2RO       0.032144
     34 H12         -6.4500    -1.5180    -2.2260 hc         1 2RO       0.032144
     35 H13         -8.3140     1.7910    -2.2600 hc         1 2RO       0.032144
     36 H14         -7.0280     1.8620    -1.0470 hc         1 2RO       0.032144
     37 H15         -6.8360     2.7040    -2.5910 hc         1 2RO       0.032144
     38 H16         -6.7860     1.2710    -4.7350 hc         1 2RO       0.032144
     39 H17         -6.6240    -0.4840    -4.5830 hc         1 2RO       0.032144
     40 H18         -8.1550     0.3020    -4.1730 hc         1 2RO       0.032144
     41 H19         -4.9030     0.5480    -4.8110 ha         1 2RO       0.120000
     42 H20         -2.4490     0.7790    -4.7710 ha         1 2RO       0.145500
@<TRIPOS>BOND
     1    21    18 1
     2    22    23 ar
     3    22    17 ar
     4    19    18 1
     5    23    14 ar
     6    17    18 1
     7    17    16 ar
     8    18    20 1
     9    14    13 1
    10    14    15 ar
    11    13    12 1
    12    16    15 ar
    13    12    11 1
    14    10     9 2
    15    11     9 1
    16    11     4 2
    17     9     8 1
    18     1     2 1
    19     4     2 1
    20     4     5 1
    21     2     3 1
    22     8     6 1
    23     5     6 1
    24     6     7 2
    25     5    24 1
    26     8    25 1
    27    12    26 1
    28    12    27 1
    29    13    28 1
    30    13    29 1
    31    15    30 1
    32    16    31 1
    33    19    32 1
    34    19    33 1
    35    19    34 1
    36    20    35 1
    37    20    36 1
    38    20    37 1
    39    21    38 1
    40    21    39 1
    41    21    40 1
    42    22    41 1
    43    23    42 1
@<TRIPOS>SUBSTRUCTURE
     1 2RO         1 TEMP              0 ****  ****    0 ROOT
