@<TRIPOS>MOLECULE
2RQ
   57    61     1     0     0
SMALL
bcc


@<TRIPOS>ATOM
      1 C01          0.0000     0.0000     0.0000 c3         1 2RQ       0.242700
      2 O02          1.4290     0.0000     0.0000 os         1 2RQ      -0.298900
      3 C03          2.0470     0.0000     1.2110 ca         1 2RQ       0.147100
      4 C04          1.2940    -0.0000     2.3740 ca         1 2RQ      -0.202000
      5 C05          1.9250    -0.0010     3.6050 ca         1 2RQ      -0.056000
      6 C06          3.3050    -0.0010     3.6790 ca         1 2RQ      -0.133000
      7 C07          4.0620    -0.0010     2.5210 ca         1 2RQ      -0.065000
      8 C08          3.4370    -0.0070     1.2850 ca         1 2RQ       0.075100
      9 O09          4.1800    -0.0080     0.1460 os         1 2RQ      -0.302400
     10 C10          4.3550     1.1710    -0.4990 ca         1 2RQ       0.840300
     11 N11          3.8890     2.2820     0.0490 nb         1 2RQ      -0.698000
     12 C12          4.0380     3.4550    -0.5480 ca         1 2RQ       0.493200
     13 C13          4.6920     3.5160    -1.7640 ca         1 2RQ      -0.437600
     14 C14          5.1750     2.3240    -2.3220 ca         1 2RQ       0.568800
     15 N15          4.9910     1.1800    -1.6590 nb         1 2RQ      -0.620000
     16 C16          5.8780     2.3340    -3.6170 cc         1 2RQ      -0.497100
     17 C17          6.8590     1.4510    -4.0380 cd         1 2RQ       0.417800
     18 N18          7.2260     1.8230    -5.2760 nd         1 2RQ      -0.612000
     19 C19          6.5390     2.8690    -5.6420 cc         1 2RQ       0.236400
     20 N20          5.6900     3.2200    -4.6550 na         1 2RQ       0.325100
     21 C21          4.7440     4.3380    -4.6800 c3         1 2RQ      -0.105000
     22 C22          3.8650     4.2370    -5.9300 c3         1 2RQ      -0.037400
     23 C23          2.9200     5.4400    -5.9830 c3         1 2RQ       0.151800
     24 N24          3.7070     6.6800    -6.0150 n7         1 2RQ      -0.578200
     25 C25          4.5230     6.8220    -4.8030 c3         1 2RQ       0.151800
     26 C26          5.5150     5.6600    -4.7140 c3         1 2RQ      -0.037400
     27 C27          7.4020     0.3090    -3.2660 ca         1 2RQ      -0.110500
     28 C28          7.5380     0.4030    -1.8800 ca         1 2RQ      -0.049500
     29 C29          8.0390    -0.6640    -1.1650 ca         1 2RQ      -0.138500
     30 C30          8.4080    -1.8290    -1.8210 ca         1 2RQ       0.102900
     31 C31          8.2740    -1.9260    -3.1970 ca         1 2RQ      -0.138500
     32 C32          7.7740    -0.8640    -3.9210 ca         1 2RQ      -0.049500
     33 F33          8.8980    -2.8720    -1.1170 f          1 2RQ      -0.132900
     34 H011        -0.3610     0.8880     0.5040 h1         1 2RQ      -0.001967
     35 H012        -0.3610    -0.8810     0.5170 h1         1 2RQ      -0.001967
     36 H013        -0.3610    -0.0070    -1.0210 h1         1 2RQ      -0.001967
     37 H041         0.2120     0.0000     2.3200 ha         1 2RQ       0.122000
     38 H051         1.3350    -0.0010     4.5130 ha         1 2RQ       0.101000
     39 H061         3.7940     0.0010     4.6450 ha         1 2RQ       0.108000
     40 H071         5.1440    -0.0040     2.5820 ha         1 2RQ       0.114000
     41 H121         3.6520     4.3560    -0.0880 h4         1 2RQ      -0.017900
     42 H131         4.8260     4.4620    -2.2750 ha         1 2RQ       0.136000
     43 H191         6.6330     3.3760    -6.5960 h5         1 2RQ       0.029100
     44 H211         4.1180     4.3090    -3.7970 h1         1 2RQ       0.070700
     45 H222         3.2830     3.3240    -5.8890 hc         1 2RQ       0.033450
     46 H221         4.4930     4.2320    -6.8130 hc         1 2RQ       0.033450
     47 H231         2.2870     5.4380    -5.1040 h1         1 2RQ       0.009950
     48 H232         2.3090     5.3780    -6.8750 h1         1 2RQ       0.009950
     49 H241         3.0900     7.4640    -6.0950 hn         1 2RQ       0.257800
     50 H252         3.8780     6.8110    -3.9320 h1         1 2RQ       0.009950
     51 H251         5.0670     7.7580    -4.8430 h1         1 2RQ       0.009950
     52 H262         6.1670     5.6760    -5.5800 hc         1 2RQ       0.033450
     53 H261         6.1040     5.7570    -3.8100 hc         1 2RQ       0.033450
     54 H281         7.2500     1.3130    -1.3670 ha         1 2RQ       0.112500
     55 H291         8.1440    -0.5920    -0.0890 ha         1 2RQ       0.115000
     56 H311         8.5640    -2.8370    -3.7050 ha         1 2RQ       0.115000
     57 H321         7.6700    -0.9410    -4.9960 ha         1 2RQ       0.112500
@<TRIPOS>BOND
     1     1     2 1   
     2     1    34 1   
     3     1    35 1   
     4     1    36 1   
     5     2     3 1   
     6     3     4 ar  
     7     3     8 ar  
     8     4     5 ar  
     9     4    37 1   
    10     5     6 ar  
    11     5    38 1   
    12     6     7 ar  
    13     6    39 1   
    14     7     8 ar  
    15     7    40 1   
    16     8     9 1   
    17     9    10 1   
    18    10    11 ar  
    19    10    15 ar  
    20    11    12 ar  
    21    12    13 ar  
    22    12    41 1   
    23    13    14 ar  
    24    13    42 1   
    25    14    15 ar  
    26    14    16 1   
    27    16    17 2   
    28    16    20 1   
    29    17    18 1   
    30    17    27 1   
    31    18    19 2   
    32    19    20 1   
    33    19    43 1   
    34    20    21 1   
    35    21    22 1   
    36    21    26 1   
    37    21    44 1   
    38    22    23 1   
    39    22    45 1   
    40    22    46 1   
    41    23    24 1   
    42    23    47 1   
    43    23    48 1   
    44    24    25 1   
    45    24    49 1   
    46    25    26 1   
    47    25    50 1   
    48    25    51 1   
    49    26    52 1   
    50    26    53 1   
    51    27    28 ar  
    52    27    32 ar  
    53    28    29 ar  
    54    28    54 1   
    55    29    30 ar  
    56    29    55 1   
    57    30    31 ar  
    58    30    33 1   
    59    31    32 ar  
    60    31    56 1   
    61    32    57 1   
@<TRIPOS>SUBSTRUCTURE
     1 2RQ         1 TEMP              0 ****  ****    0 ROOT
