@<TRIPOS>MOLECULE
molecule
   57    61     1     0     0
SMALL
bcc


@<TRIPOS>ATOM
      1 C01          0.0000     0.0000     0.0000 c3         1 2RQ       0.127700
      2 O02          1.4290     0.0000     0.0000 os         1 2RQ      -0.315900
      3 C03          2.0470     0.0000     1.2110 ca         1 2RQ       0.148100
      4 C04          1.2940    -0.0000     2.3740 ca         1 2RQ      -0.217000
      5 C05          1.9250    -0.0010     3.6050 ca         1 2RQ      -0.083000
      6 C06          3.3050    -0.0010     3.6790 ca         1 2RQ      -0.161000
      7 C07          4.0620    -0.0010     2.5210 ca         1 2RQ      -0.083000
      8 C08          3.4370    -0.0070     1.2850 ca         1 2RQ       0.079100
      9 O09          4.1800    -0.0080     0.1460 os         1 2RQ      -0.310400
     10 C10          4.3550     1.1710    -0.4990 ca         1 2RQ       0.919300
     11 N11          3.8890     2.2820     0.0490 nb         1 2RQ      -0.800000
     12 C12          4.0380     3.4550    -0.5480 ca         1 2RQ       0.498200
     13 C13          4.6920     3.5160    -1.7640 ca         1 2RQ      -0.442600
     14 C14          5.1750     2.3240    -2.3220 ca         1 2RQ       0.594800
     15 N15          4.9910     1.1800    -1.6590 nb         1 2RQ      -0.731000
     16 C16          5.8780     2.3340    -3.6170 cc         1 2RQ      -0.310100
     17 C17          6.8590     1.4510    -4.0380 cc         1 2RQ       0.439800
     18 N18          7.2260     1.8230    -5.2760 nc         1 2RQ      -0.696000
     19 C19          6.5390     2.8690    -5.6420 cd         1 2RQ       0.424400
     20 N20          5.6900     3.2200    -4.6550 na         1 2RQ      -0.167900
     21 C21          4.7440     4.3380    -4.6800 c3         1 2RQ       0.034000
     22 C22          3.8650     4.2370    -5.9300 c3         1 2RQ      -0.091400
     23 C23          2.9200     5.4400    -5.9830 c3         1 2RQ       0.158800
     24 N24          3.7070     6.6800    -6.0150 n7         1 2RQ      -0.819200
     25 C25          4.5230     6.8220    -4.8030 c3         1 2RQ       0.158800
     26 C26          5.5150     5.6600    -4.7140 c3         1 2RQ      -0.091400
     27 C27          7.4020     0.3090    -3.2660 ca         1 2RQ      -0.117500
     28 C28          7.5380     0.4030    -1.8800 ca         1 2RQ      -0.065000
     29 C29          8.0390    -0.6640    -1.1650 ca         1 2RQ      -0.174000
     30 C30          8.4080    -1.8290    -1.8210 ca         1 2RQ       0.135900
     31 C31          8.2740    -1.9260    -3.1970 ca         1 2RQ      -0.174000
     32 C32          7.7740    -0.8640    -3.9210 ca         1 2RQ      -0.065000
     33 F33          8.8980    -2.8720    -1.1170 f          1 2RQ      -0.145900
     34 H011        -0.3610     0.8880     0.5040 h1         1 2RQ       0.042367
     35 H012        -0.3610    -0.8810     0.5170 h1         1 2RQ       0.042367
     36 H013        -0.3610    -0.0070    -1.0210 h1         1 2RQ       0.042367
     37 H041         0.2120     0.0000     2.3200 ha         1 2RQ       0.139000
     38 H051         1.3350    -0.0010     4.5130 ha         1 2RQ       0.133000
     39 H061         3.7940     0.0010     4.6450 ha         1 2RQ       0.137000
     40 H071         5.1440    -0.0040     2.5820 ha         1 2RQ       0.147000
     41 H121         3.6520     4.3560    -0.0880 h4         1 2RQ       0.029100
     42 H131         4.8260     4.4620    -2.2750 ha         1 2RQ       0.148000
     43 H191         6.6330     3.3760    -6.5960 h5         1 2RQ       0.070100
     44 H211         4.1180     4.3090    -3.7970 h1         1 2RQ       0.083700
     45 H222         3.2830     3.3240    -5.8890 hc         1 2RQ       0.063200
     46 H221         4.4930     4.2320    -6.8130 hc         1 2RQ       0.063200
     47 H231         2.2870     5.4380    -5.1040 h1         1 2RQ       0.037950
     48 H232         2.3090     5.3780    -6.8750 h1         1 2RQ       0.037950
     49 H241         3.0900     7.4640    -6.0950 hn         1 2RQ       0.360800
     50 H252         3.8780     6.8110    -3.9320 h1         1 2RQ       0.037950
     51 H251         5.0670     7.7580    -4.8430 h1         1 2RQ       0.037950
     52 H262         6.1670     5.6760    -5.5800 hc         1 2RQ       0.063200
     53 H261         6.1040     5.7570    -3.8100 hc         1 2RQ       0.063200
     54 H281         7.2500     1.3130    -1.3670 ha         1 2RQ       0.141500
     55 H291         8.1440    -0.5920    -0.0890 ha         1 2RQ       0.141500
     56 H311         8.5640    -2.8370    -3.7050 ha         1 2RQ       0.141500
     57 H321         7.6700    -0.9410    -4.9960 ha         1 2RQ       0.141500
@<TRIPOS>BOND
     1    33    30 1
     2    29    30 ar
     3    29    28 ar
     4    30    31 ar
     5    28    27 ar
     6    31    32 ar
     7    27    32 ar
     8    27    17 1
     9    18    17 1
    10    18    19 2
    11    17    16 2
    12    13    12 ar
    13    13    14 ar
    14    19    20 1
    15    12    11 ar
    16    16    14 1
    17    16    20 1
    18    14    15 ar
    19    20    21 1
    20    11    10 ar
    21    22    21 1
    22    22    23 1
    23    21    26 1
    24    15    10 ar
    25    10     9 1
    26    26    25 1
    27    23    24 1
    28     9     8 1
    29    24    25 1
    30     8     7 ar
    31     8     3 ar
    32     2     3 1
    33     2     1 1
    34     7     6 ar
    35     3     4 ar
    36     6     5 ar
    37     4     5 ar
    38     1    34 1
    39     1    35 1
    40     1    36 1
    41     4    37 1
    42     5    38 1
    43     6    39 1
    44     7    40 1
    45    12    41 1
    46    13    42 1
    47    19    43 1
    48    21    44 1
    49    22    45 1
    50    22    46 1
    51    23    47 1
    52    23    48 1
    53    24    49 1
    54    25    50 1
    55    25    51 1
    56    26    52 1
    57    26    53 1
    58    28    54 1
    59    29    55 1
    60    31    56 1
    61    32    57 1
@<TRIPOS>SUBSTRUCTURE
     1 2RQ         1 TEMP              0 ****  ****    0 ROOT
