@<TRIPOS>MOLECULE
2RR
   46    49     1     0     0
SMALL
bcc


@<TRIPOS>ATOM
      1 C20         0.1850    0.0810    0.0670 c3        1 2RR     -0.053700
      2 C21         1.6900    0.3280    0.0310 c         1 2RR      0.573700
      3 O21         2.3320    0.6480    1.0370 o         1 2RR     -0.520100
      4 C25         3.6520   -0.1960   -3.7590 ca        1 2RR      0.193600
      5 C26         4.3860    0.0090   -2.5640 ca        1 2RR     -0.216000
      6 C27         3.7270    0.1740   -1.3570 ca        1 2RR     -0.035500
      7 C24         2.2360   -0.2120   -3.6820 ca        1 2RR     -0.216000
      8 C23         1.5950   -0.0490   -2.4630 ca        1 2RR     -0.035500
      9 C22         2.3250    0.1430   -1.2830 ca        1 2RR     -0.230600
     10 C2         -0.6580    1.2460    2.1950 cc        1 2RR      0.391800
     11 C4         -1.2450   -0.4980    3.3990 ca        1 2RR      0.074400
     12 N1         -0.4460    0.1220    1.3500 na        1 2RR     -0.131300
     13 C9         -0.7860   -1.0030    2.1170 ca        1 2RR     -0.063200
     14 C5         -1.6900   -1.3990    4.3800 ca        1 2RR     -0.069000
     15 C8         -0.7770   -2.3780    1.8420 ca        1 2RR     -0.129000
     16 C6         -1.6710   -2.7520    4.0840 ca        1 2RR     -0.148000
     17 C7         -1.2220   -3.2320    2.8390 ca        1 2RR     -0.107000
     18 N3         -1.1520    0.9020    3.4090 nd        1 2RR     -0.577100
     19 C18        -2.2920    6.2890    6.4850 c1        1 2RR      0.207700
     20 C14        -0.7130    3.8580    2.5790 cc        1 2RR      0.497900
     21 N13        -0.2470    4.8920    1.8200 nd        1 2RR     -0.427300
     22 C10        -0.3930    2.6140    1.7920 cc        1 2RR      0.196700
     23 N11         0.2090    3.0370    0.6660 nd        1 2RR     -0.323300
     24 N19        -2.2910    7.2900    7.0760 n1        1 2RR     -0.358800
     25 O12         0.2730    4.3570    0.7090 os        1 2RR      0.130600
     26 C16        -1.4300    5.1440    4.5070 c3        1 2RR      0.196800
     27 C17        -2.3050    5.0380    5.7630 c3        1 2RR     -0.033300
     28 H1         -0.3080    0.8450   -0.6040 h1        1 2RR      0.090200
     29 H2         -0.0010   -0.9450   -0.3700 h1        1 2RR      0.090200
     30 H3          5.4860    0.0340   -2.5890 ha        1 2RR      0.138000
     31 H4          4.3050    0.3380   -0.4300 ha        1 2RR      0.142500
     32 H5          1.6360   -0.3590   -4.5920 ha        1 2RR      0.138000
     33 H6          0.4940   -0.0630   -2.4450 ha        1 2RR      0.142500
     34 H7          3.7680   -0.3010   -5.7860 hn        1 2RR      0.407800
     35 H8          5.2500   -0.1570   -5.0140 hn        1 2RR      0.407800
     36 H9         -2.0430   -1.0300    5.3530 ha        1 2RR      0.147000
     37 H10        -0.4270   -2.7650    0.8760 ha        1 2RR      0.137000
     38 H11        -2.0130   -3.4760    4.8380 ha        1 2RR      0.136000
     39 H12        -1.2240   -4.3180    2.6560 ha        1 2RR      0.136000
     40 H13        -1.4160    3.0700    4.2970 hn        1 2RR      0.453800
     41 H14        -1.8340    5.9620    3.8440 h1        1 2RR      0.064700
     42 H15        -0.3830    5.4360    4.8140 h1        1 2RR      0.064700
     43 H16        -3.3650    4.7870    5.4800 hc        1 2RR      0.084200
     44 H17        -1.9280    4.2210    6.4400 hc        1 2RR      0.084200
     45 N28         4.3010   -0.4450   -4.9600 nh        1 2RR     -0.835200
     46 N15        -1.4280    3.9090    3.7530 nh        1 2RR     -0.819900
@<TRIPOS>BOND
     1    1    2 1   
     2    1   12 1   
     3    1   28 1   
     4    1   29 1   
     5    2    3 2   
     6    2    9 1   
     7    4    5 ar  
     8    4    7 ar  
     9    4   45 1   
    10    5    6 ar  
    11    5   30 1   
    12    6    9 ar  
    13    6   31 1   
    14    7    8 ar  
    15    7   32 1   
    16    8    9 ar  
    17    8   33 1   
    18   10   12 1   
    19   10   18 2   
    20   10   22 1   
    21   11   13 ar  
    22   11   14 ar  
    23   11   18 1   
    24   12   13 1   
    25   13   15 ar  
    26   14   16 ar  
    27   14   36 1   
    28   15   17 ar  
    29   15   37 1   
    30   16   17 ar  
    31   16   38 1   
    32   17   39 1   
    33   19   24 3   
    34   19   27 1   
    35   20   21 2   
    36   20   22 1   
    37   20   46 1   
    38   21   25 1   
    39   22   23 2   
    40   23   25 1   
    41   26   27 1   
    42   26   41 1   
    43   26   42 1   
    44   26   46 1   
    45   27   43 1   
    46   27   44 1   
    47   34   45 1   
    48   35   45 1   
    49   40   46 1   
@<TRIPOS>SUBSTRUCTURE
     1 2RR         1 TEMP              0 ****  ****    0 ROOT
