@<TRIPOS>MOLECULE
2RS
   66    69     1     0     0
SMALL
bcc


@<TRIPOS>ATOM
      1 CAQ         0.2340    0.0070    0.2510 c3        1 2RS      0.130800
      2 CAN         1.7560   -0.0020    0.0770 c3        1 2RS      0.126400
      3 OAX         2.4260    0.2750    1.3010 os        1 2RS     -0.415600
      4 CAO         2.0150    1.5150    1.8660 c3        1 2RS      0.126400
      5 CAR         0.4980    1.5690    2.0780 c3        1 2RS      0.130800
      6 NBI        -0.2510    1.2340    0.8740 n3        1 2RS     -0.723600
      7 CAP        -1.6900    1.1830    1.0930 c3        1 2RS      0.173800
      8 CAL        -2.2850    2.5080    1.5660 c3        1 2RS     -0.093400
      9 CAM        -3.8010    2.4140    1.4990 c3        1 2RS      0.139400
     10 OAY        -4.2670    3.6490    2.0820 os        1 2RS     -0.413100
     11 CBD        -8.5380    1.1230    0.6570 ca        1 2RS      0.169600
     12 CAH        -7.5790    0.1760    1.0750 ca        1 2RS     -0.148500
     13 CAF        -7.3880   -0.9950    0.3500 ca        1 2RS     -0.076500
     14 CBA        -8.1500   -1.2550   -0.7960 ca        1 2RS     -0.034000
     15 CAE        -7.9490   -2.4540   -1.5320 cg        1 2RS      0.235800
     16 NAD        -7.7840   -3.4350   -2.1340 n1        1 2RS     -0.363800
     17 CAG        -9.1150   -0.3270   -1.2120 ca        1 2RS     -0.076500
     18 CAI        -9.3070    0.8490   -0.4990 ca        1 2RS     -0.148500
     19 NAS        -8.2970    4.4240    2.2650 nb        1 2RS     -0.854000
     20 CBF        -7.3200    5.3000    2.7250 ca        1 2RS      0.925900
     21 CBG        -5.6290    3.8450    2.1300 ca        1 2RS      0.913300
     22 NAU        -5.9510    5.0680    2.6600 nb        1 2RS     -0.776000
     23 NAT        -6.4870    2.8720    1.6760 nb        1 2RS     -0.854000
     24 CBE        -7.8260    3.2160    1.7810 ca        1 2RS      0.942900
     25 CBH        -6.9350    7.6030    3.4970 ca        1 2RS      0.096600
     26 CBB        -6.9730    8.6490    2.5420 ca        1 2RS     -0.050300
     27 CAB        -7.8540    8.5610    1.3510 c3        1 2RS     -0.057800
     28 CAJ        -6.1790    9.7800    2.7250 ca        1 2RS     -0.134000
     29 CAZ        -5.3390    9.8970    3.8360 ca        1 2RS     -0.061300
     30 CAA        -4.5050   11.1070    4.0190 c3        1 2RS     -0.054800
     31 CAK        -5.3080    8.8670    4.7770 ca        1 2RS     -0.134000
     32 CBC        -6.0960    7.7210    4.6290 ca        1 2RS     -0.050300
     33 CAC        -6.0330    6.6640    5.6660 c3        1 2RS     -0.057800
     34 H1         -0.2410   -0.0730   -0.7660 h1        1 2RS      0.041450
     35 H2         -0.0610   -0.9060    0.8470 h1        1 2RS      0.041450
     36 H3          2.1060   -1.0280   -0.2070 h1        1 2RS      0.054450
     37 H4          2.0710    0.7430   -0.7010 h1        1 2RS      0.054450
     38 H5          2.5440    1.5620    2.8530 h1        1 2RS      0.054450
     39 H6          2.3520    2.3570    1.2060 h1        1 2RS      0.054450
     40 H7          0.2320    0.8840    2.9360 h1        1 2RS      0.041450
     41 H8          0.2200    2.6190    2.3720 h1        1 2RS      0.041450
     42 H10        -2.1640    0.9090    0.1060 h1        1 2RS      0.033700
     43 H11        -1.9710    0.3800    1.8380 h1        1 2RS      0.033700
     44 H12        -1.9720    2.7280    2.6190 hc        1 2RS      0.067700
     45 H13        -1.9320    3.3570    0.9250 hc        1 2RS      0.067700
     46 H14        -4.1600    2.3380    0.4410 h1        1 2RS      0.055700
     47 H15        -4.1850    1.5500    2.1000 h1        1 2RS      0.055700
     48 H16        -9.7320    2.6600    1.2880 hn        1 2RS      0.451800
     49 H17        -6.9740    0.3490    1.9800 ha        1 2RS      0.151500
     50 H18        -6.6350   -1.7250    0.6850 ha        1 2RS      0.147000
     51 H19        -9.7200   -0.5270   -2.1110 ha        1 2RS      0.147000
     52 H20       -10.0690    1.5650   -0.8460 ha        1 2RS      0.151500
     53 H21        -8.7360    6.7030    3.1520 hn        1 2RS      0.438800
     54 H22        -8.9300    8.5440    1.6590 hc        1 2RS      0.049033
     55 H23        -7.7020    9.4360    0.6730 hc        1 2RS      0.049033
     56 H24        -7.6380    7.6300    0.7680 hc        1 2RS      0.049033
     57 H25        -6.2090   10.5910    1.9800 ha        1 2RS      0.135000
     58 H26        -5.0870   11.8920    4.5650 hc        1 2RS      0.046033
     59 H27        -3.5870   10.8760    4.6130 hc        1 2RS      0.046033
     60 H28        -4.1910   11.5280    3.0320 hc        1 2RS      0.046033
     61 H29        -4.6490    8.9540    5.6550 ha        1 2RS      0.135000
     62 H30        -5.5280    5.7530    5.2580 hc        1 2RS      0.049033
     63 H31        -5.4570    7.0130    6.5590 hc        1 2RS      0.049033
     64 H32        -7.0600    6.3760    6.0040 hc        1 2RS      0.049033
     65 NAW        -7.7830    6.4690    3.3530 nh        1 2RS     -0.697300
     66 NAV        -8.8110    2.2860    1.4040 nh        1 2RS     -0.722300
@<TRIPOS>BOND
     1    1    2 1   
     2    1    6 1   
     3    1   34 1   
     4    1   35 1   
     5    2    3 1   
     6    2   36 1   
     7    2   37 1   
     8    3    4 1   
     9    4    5 1   
    10    4   38 1   
    11    4   39 1   
    12    5    6 1   
    13    5   40 1   
    14    5   41 1   
    15    6    7 1   
    16    7    8 1   
    17    7   42 1   
    18    7   43 1   
    19    8    9 1   
    20    8   44 1   
    21    8   45 1   
    22    9   10 1   
    23    9   46 1   
    24    9   47 1   
    25   10   21 1   
    26   11   12 ar  
    27   11   18 ar  
    28   11   66 1   
    29   12   13 ar  
    30   12   49 1   
    31   13   14 ar  
    32   13   50 1   
    33   14   15 1   
    34   14   17 ar  
    35   15   16 3   
    36   17   18 ar  
    37   17   51 1   
    38   18   52 1   
    39   19   20 ar  
    40   19   24 ar  
    41   20   22 ar  
    42   20   65 1   
    43   21   22 ar  
    44   21   23 ar  
    45   23   24 ar  
    46   24   66 1   
    47   25   26 ar  
    48   25   32 ar  
    49   25   65 1   
    50   26   27 1   
    51   26   28 ar  
    52   27   54 1   
    53   27   55 1   
    54   27   56 1   
    55   28   29 ar  
    56   28   57 1   
    57   29   30 1   
    58   29   31 ar  
    59   30   58 1   
    60   30   59 1   
    61   30   60 1   
    62   31   32 ar  
    63   31   61 1   
    64   32   33 1   
    65   33   62 1   
    66   33   63 1   
    67   33   64 1   
    68   48   66 1   
    69   53   65 1   
@<TRIPOS>SUBSTRUCTURE
     1 2RS         1 TEMP              0 ****  ****    0 ROOT
