@<TRIPOS>MOLECULE
molecule
   66    69     1     0     0
SMALL
bcc


@<TRIPOS>ATOM
      1 CAQ          0.0000     0.0000     0.0000 c3         1 2RS       0.107300
      2 CAN          1.5310     0.0000     0.0000 c3         1 2RS       0.115400
      3 OAX          2.0030     0.0000     1.3500 os         1 2RS      -0.402600
      4 CAO          1.5500     1.1170     2.1180 c3         1 2RS       0.115400
      5 CAR          0.0190     1.1280     2.1410 c3         1 2RS       0.107300
      6 NBI         -0.4850     1.1620     0.7600 n3         1 2RS      -0.637600
      7 CAP         -1.9530     1.2290     0.7380 c3         1 2RS       0.159800
      8 CAL         -2.4100     2.5700     1.3160 c3         1 2RS      -0.090400
      9 CAM         -3.9390     2.6410     1.2930 c3         1 2RS      -0.247600
     10 OAY         -4.3650     3.8930     1.8340 os         1 2RS      -0.295100
     11 CBD         -8.2550     1.2110     0.6170 ca         1 2RS       0.209600
     12 CAH         -7.1620     0.6370     1.2590 ca         1 2RS      -0.156000
     13 CAF         -6.6850    -0.5880     0.8490 ca         1 2RS      -0.094500
     14 CBA         -7.3020    -1.2560    -0.2140 ca         1 2RS       0.006000
     15 CAE         -6.8100    -2.5300    -0.6430 cg         1 2RS       0.242800
     16 NAD         -6.4230    -3.5360    -1.0030 n1         1 2RS      -0.367800
     17 CAG         -8.4000    -0.6750    -0.8560 ca         1 2RS      -0.094500
     18 CAI         -8.8740     0.5470    -0.4380 ca         1 2RS      -0.156000
     19 NAS         -8.3180     4.5570     1.9860 nb         1 2RS      -0.927000
     20 CBF         -7.4710     5.4810     2.4290 ca         1 2RS       1.006900
     21 CBG         -5.6980     4.1170     1.8850 ca         1 2RS       0.930300
     22 NAU         -6.1600     5.2600     2.3780 nb         1 2RS      -0.857000
     23 NAT         -6.5440     3.1940     1.4440 nb         1 2RS      -0.918000
     24 CBE         -7.8540     3.4130     1.4940 ca         1 2RS       0.966900
     25 CBH         -7.0610     7.6890     3.2990 ca         1 2RS       0.140600
     26 CBB         -7.1260     8.9240     2.6690 ca         1 2RS      -0.063300
     27 CAB         -8.1550     9.1720     1.5970 c3         1 2RS      -0.050300
     28 CAJ         -6.2440     9.9260     3.0260 ca         1 2RS      -0.146500
     29 CAZ         -5.2990     9.7000     4.0090 ca         1 2RS      -0.085300
     30 CAA         -4.3400    10.7950     4.3970 c3         1 2RS      -0.055800
     31 CAK         -5.2320     8.4700     4.6380 ca         1 2RS      -0.146500
     32 CBC         -6.1140     7.4660     4.2900 ca         1 2RS      -0.063300
     33 CAC         -6.0450     6.1290     4.9820 c3         1 2RS      -0.050300
     34 H1          -0.3560     0.0610    -1.0210 h1         1 2RS       0.042450
     35 H2          -0.3140    -0.9890     0.3100 h1         1 2RS       0.042450
     36 H3           1.9880     0.7070    -0.6810 h1         1 2RS       0.056200
     37 H4           1.6330    -0.9840    -0.4400 h1         1 2RS       0.056200
     38 H5           2.1540     0.7680     2.9480 h1         1 2RS       0.056200
     39 H6           1.7310     2.1590     1.8800 h1         1 2RS       0.056200
     40 H7          -0.0820     0.2250     2.7300 h1         1 2RS       0.042450
     41 H8          -0.2820     1.7800     2.9520 h1         1 2RS       0.042450
     42 H10         -2.4210     0.8230    -0.1510 h1         1 2RS       0.033700
     43 H11         -2.6360     0.5980     1.2930 h1         1 2RS       0.033700
     44 H12         -1.7670     3.4360     1.4160 hc         1 2RS       0.051200
     45 H13         -2.3970     2.3950     2.3860 hc         1 2RS       0.051200
     46 H14         -4.1230     2.0650     0.3940 h1         1 2RS       0.203700
     47 H15         -4.0540     3.6020     0.8050 h1         1 2RS       0.203700
     48 H16         -9.5360     2.9060     1.4260 hn         1 2RS       0.488800
     49 H17         -6.6310     1.0990     2.0830 ha         1 2RS       0.157000
     50 H18         -5.7180    -0.6350     1.3340 ha         1 2RS       0.158500
     51 H19         -9.2270    -0.9740    -1.4900 ha         1 2RS       0.158500
     52 H20         -9.8050     0.8940    -0.8700 ha         1 2RS       0.157000
     53 H21         -8.9500     6.7160     2.8890 hn         1 2RS       0.469800
     54 H22         -8.1310     8.5180     0.7340 hc         1 2RS       0.053700
     55 H23         -8.0210    10.2450     1.5340 hc         1 2RS       0.053700
     56 H24         -9.0230     8.9630     2.2110 hc         1 2RS       0.053700
     57 H25         -5.8350    10.9140     2.8540 ha         1 2RS       0.150000
     58 H26         -4.6860    11.3290     5.2730 hc         1 2RS       0.040700
     59 H27         -3.3170    10.4810     4.5630 hc         1 2RS       0.040700
     60 H28         -4.3420    11.6320     3.7090 hc         1 2RS       0.040700
     61 H29         -4.7800     8.2450     5.5960 ha         1 2RS       0.150000
     62 H30         -5.1130     5.6240     4.7590 hc         1 2RS       0.053700
     63 H31         -5.6110     6.5150     5.8960 hc         1 2RS       0.053700
     64 H32         -7.0430     5.7350     5.1280 hc         1 2RS       0.053700
     65 NAW         -7.9510     6.6710     2.9400 nu         1 2RS      -0.746300
     66 NAV         -8.7350     2.4520     1.0350 nu         1 2RS      -0.757300
@<TRIPOS>BOND
     1     2     3 1
     2     2     1 1
     3     3     4 1
     4     1     6 1
     5     4     5 1
     6     6     5 1
     7     6     7 1
     8     7     8 1
     9     8     9 1
    10     9    10 1
    11    10    21 1
    12    21    23 ar
    13    21    22 ar
    14    23    24 ar
    15    22    20 ar
    16    24    66 1
    17    24    19 ar
    18    66    11 1
    19    20    19 ar
    20    20    65 1
    21    12    11 ar
    22    12    13 ar
    23    11    18 ar
    24    65    25 1
    25    13    14 ar
    26    18    17 ar
    27    33    32 1
    28    14    17 ar
    29    14    15 1
    30    25    32 ar
    31    25    26 ar
    32    27    26 1
    33    32    31 ar
    34    15    16 3
    35    26    28 ar
    36    31    29 ar
    37    28    29 ar
    38    29    30 1
    39     1    34 1
    40     1    35 1
    41     2    36 1
    42     2    37 1
    43     4    38 1
    44     4    39 1
    45     5    40 1
    46     5    41 1
    47     7    42 1
    48     7    43 1
    49     8    44 1
    50     8    45 1
    51     9    46 1
    52     9    47 1
    53    66    48 1
    54    12    49 1
    55    13    50 1
    56    17    51 1
    57    18    52 1
    58    65    53 1
    59    27    54 1
    60    27    55 1
    61    27    56 1
    62    28    57 1
    63    30    58 1
    64    30    59 1
    65    30    60 1
    66    31    61 1
    67    33    62 1
    68    33    63 1
    69    33    64 1
@<TRIPOS>SUBSTRUCTURE
     1 2RS         1 TEMP              0 ****  ****    0 ROOT
