@<TRIPOS>MOLECULE
molecule
   43    45     1     0     0
SMALL
bcc


@<TRIPOS>ATOM
      1 NAV          0.0000     0.0000     0.0000 nu         1 2RT      -0.651300
      2 CBD          1.3940     0.0000     0.0000 ca         1 2RT       0.129600
      3 CAH          2.0890     0.0000     1.2050 ca         1 2RT      -0.134500
      4 CAF          3.4660     0.0010     1.2080 ca         1 2RT      -0.075000
      5 CBA          4.1660     0.0010    -0.0010 ca         1 2RT      -0.054000
      6 CAE          5.5970     0.0020    -0.0020 cg         1 2RT       0.239800
      7 NAD          6.7330    -0.0110     0.0120 n1         1 2RT      -0.362800
      8 CAG          3.4640     0.0010    -1.2110 ca         1 2RT      -0.075000
      9 CAI          2.0880    -0.0050    -1.2070 ca         1 2RT      -0.134500
     10 NAS         -2.0150    -0.5790    -1.0570 nb         1 2RT      -0.807000
     11 CBF         -2.6750    -1.2250    -2.0120 ca         1 2RT       0.963900
     12 CBG         -0.6910    -2.0500    -2.8300 ca         1 2RT       0.747900
     13 NAU         -2.0080    -1.9610    -2.8990 nb         1 2RT      -0.838000
     14 NAT         -0.0310    -1.4090    -1.8810 nb         1 2RT      -0.858000
     15 CBE         -0.6910    -0.6710    -0.9910 ca         1 2RT       0.860900
     16 CBH         -4.4740     0.0350    -2.8270 ca         1 2RT       0.254600
     17 CBB         -5.8570     0.4610    -2.3480 ca         1 2RT      -0.109300
     18 CAB         -6.5650     0.0930    -1.0900 c3         1 2RT      -0.061800
     19 CAJ         -6.5060     1.5610    -2.8930 ca         1 2RT      -0.134500
     20 CAZ         -5.6860     2.2390    -3.9760 ca         1 2RT      -0.087300
     21 CAA         -6.4120     3.5240    -4.3970 c3         1 2RT      -0.040800
     22 CAK         -4.5770     1.6890    -4.1820 ca         1 2RT      -0.134500
     23 CBC         -3.9780     0.6200    -3.6320 ca         1 2RT      -0.109300
     24 CAC         -2.8410    -0.0180    -4.5590 c3         1 2RT      -0.061800
     25 H1          -0.6800    -0.6970     0.2320 hn         1 2RT       0.469800
     26 H2           1.4660     0.2460     2.0570 ha         1 2RT       0.166000
     27 H3           4.0940    -0.1600     2.0760 ha         1 2RT       0.147500
     28 H4           4.1310     0.2930    -2.0130 ha         1 2RT       0.147500
     29 H5           1.5610    -0.3200    -2.0990 ha         1 2RT       0.166000
     30 H6          -0.2530    -2.4220    -3.7480 h5         1 2RT       0.070100
     31 H7          -4.5220    -1.9920    -1.8800 hn         1 2RT       0.474800
     32 H8          -5.9220     0.1720    -0.2210 hc         1 2RT       0.048033
     33 H9          -6.3840    -0.9590    -0.9040 hc         1 2RT       0.048033
     34 H10         -7.4190     0.6060    -0.6640 hc         1 2RT       0.048033
     35 H11         -7.4510     1.9590    -2.5440 ha         1 2RT       0.129000
     36 H12         -5.9590     4.4680    -4.1220 hc         1 2RT       0.051033
     37 H13         -7.4460     3.2350    -4.2550 hc         1 2RT       0.051033
     38 H14         -6.2800     3.4770    -5.4720 hc         1 2RT       0.051033
     39 H15         -3.9230     2.2650    -4.8260 ha         1 2RT       0.129000
     40 H16         -2.0300    -0.0330    -3.8410 hc         1 2RT       0.048033
     41 H17         -2.5960     0.8080    -5.2160 hc         1 2RT       0.048033
     42 H18         -3.0400    -0.9950    -4.9850 hc         1 2RT       0.048033
     43 NAW         -4.0510    -1.1330    -2.0850 nu         1 2RT      -0.811300
@<TRIPOS>BOND
     1    14    12 ar
     2    14    15 ar
     3     3     2 ar
     4     3     4 ar
     5     1    15 1
     6     1     2 1
     7    12    13 ar
     8    15    10 ar
     9     2     9 ar
    10     4     5 ar
    11    13    11 ar
    12    10    11 ar
    13     9     8 ar
    14     5     8 ar
    15     5     6 1
    16    11    43 1
    17     6     7 3
    18    43    16 1
    19    18    17 1
    20    16    17 ar
    21    16    23 ar
    22    17    19 ar
    23    23    24 1
    24    23    22 ar
    25    19    20 ar
    26    22    20 ar
    27    20    21 1
    28     1    25 1
    29     3    26 1
    30     4    27 1
    31     8    28 1
    32     9    29 1
    33    12    30 1
    34    43    31 1
    35    18    32 1
    36    18    33 1
    37    18    34 1
    38    19    35 1
    39    21    36 1
    40    21    37 1
    41    21    38 1
    42    22    39 1
    43    24    40 1
    44    24    41 1
    45    24    42 1
@<TRIPOS>SUBSTRUCTURE
     1 2RT         1 TEMP              0 ****  ****    0 ROOT
