@<TRIPOS>MOLECULE
2RT
   43    46     1     0     0
SMALL
bcc


@<TRIPOS>ATOM
      1 NAV          0.0000     0.0000     0.0000 nu         1 2RT       0.081000
      2 CBD          1.3940     0.0000     0.0000 ca         1 2RT      -0.045000
      3 CAH          2.0890     0.0000     1.2050 ca         1 2RT      -0.119000
      4 CAF          3.4660     0.0010     1.2080 ca         1 2RT      -0.046000
      5 CBA          4.1660     0.0010    -0.0010 ca         1 2RT      -0.013000
      6 CAE          5.5970     0.0020    -0.0020 c1         1 2RT      -0.096000
      7 NAD          6.7330    -0.0110     0.0120 n1         1 2RT      -0.057000
      8 CAG          3.4640     0.0010    -1.2110 ca         1 2RT      -0.046000
      9 CAI          2.0880    -0.0050    -1.2070 ca         1 2RT      -0.119000
     10 NAS         -2.0150    -0.5790    -1.0570 n2         1 2RT      -0.169000
     11 CBF         -2.6750    -1.2250    -2.0120 c2         1 2RT       0.054000
     12 CBG         -0.6910    -2.0500    -2.8300 c2         1 2RT       0.055000
     13 NAU         -2.0080    -1.9610    -2.8990 n2         1 2RT      -0.220000
     14 NAT         -0.0310    -1.4090    -1.8810 n2         1 2RT      -0.230000
     15 CBE         -0.6910    -0.6710    -0.9910 c3         1 2RT       0.013000
     16 CBH         -4.4740     0.0350    -2.8270 ca         1 2RT       0.045000
     17 CBB         -5.8570     0.4610    -2.3480 ca         1 2RT      -0.107000
     18 CAB         -6.5650     0.0930    -1.0900 c3         1 2RT      -0.086000
     19 CAJ         -6.5060     1.5610    -2.8930 ca         1 2RT      -0.112500
     20 CAZ         -5.6860     2.2390    -3.9760 ca         1 2RT      -0.086000
     21 CAA         -6.4120     3.5240    -4.3970 c3         1 2RT      -0.054000
     22 CAK         -4.5770     1.6890    -4.1820 ca         1 2RT      -0.112500
     23 CBC         -3.9780     0.6200    -3.6320 ca         1 2RT      -0.107000
     24 CAC         -2.8410    -0.0180    -4.5590 c3         1 2RT      -0.086000
     25 H1          -0.6800    -0.6970     0.2320 DU         1 2RT       0.154000
     26 H2           1.4660     0.2460     2.0570 ha         1 2RT       0.138500
     27 H3           4.0940    -0.1600     2.0760 ha         1 2RT       0.116000
     28 H4           4.1310     0.2930    -2.0130 ha         1 2RT       0.116000
     29 H5           1.5610    -0.3200    -2.0990 ha         1 2RT       0.138500
     30 H6          -0.2530    -2.4220    -3.7480 h5         1 2RT       0.145000
     31 H7          -4.5220    -1.9920    -1.8800 hn         1 2RT       0.111000
     32 H8          -5.9220     0.1720    -0.2210 hc         1 2RT       0.053667
     33 H9          -6.3840    -0.9590    -0.9040 hc         1 2RT       0.053667
     34 H10         -7.4190     0.6060    -0.6640 hc         1 2RT       0.053667
     35 H11         -7.4510     1.9590    -2.5440 ha         1 2RT       0.107500
     36 H12         -5.9590     4.4680    -4.1220 hc         1 2RT       0.053333
     37 H13         -7.4460     3.2350    -4.2550 hc         1 2RT       0.053333
     38 H14         -6.2800     3.4770    -5.4720 hc         1 2RT       0.053333
     39 H15         -3.9230     2.2650    -4.8260 ha         1 2RT       0.107500
     40 H16         -2.0300    -0.0330    -3.8410 hc         1 2RT       0.053667
     41 H17         -2.5960     0.8080    -5.2160 hc         1 2RT       0.053667
     42 H18         -3.0400    -0.9950    -4.9850 hc         1 2RT       0.053667
     43 NAW         -4.0510    -1.1330    -2.0850 nu         1 2RT       0.048000
@<TRIPOS>BOND
     1     1     2 1   
     2     1    15 1   
     3     1    25 1   
     4     2     3 1   
     5     2     9 1   
     6     3     4 1   
     7     3    26 1   
     8     4     5 1   
     9     4    27 1   
    10     5     6 1   
    11     5     8 1   
    12     6     7 1   
    13     8     9 1   
    14     8    28 1   
    15     9    29 1   
    16    10    11 1   
    17    10    15 1   
    18    11    13 1   
    19    11    43 1   
    20    12    13 1   
    21    12    14 1   
    22    12    30 1   
    23    14    15 1   
    24    15    25 1   
    25    16    17 1   
    26    16    23 1   
    27    16    43 1   
    28    17    18 1   
    29    17    19 1   
    30    18    32 1   
    31    18    33 1   
    32    18    34 1   
    33    19    20 1   
    34    19    35 1   
    35    20    21 1   
    36    20    22 1   
    37    21    36 1   
    38    21    37 1   
    39    21    38 1   
    40    22    23 1   
    41    22    39 1   
    42    23    24 1   
    43    24    40 1   
    44    24    41 1   
    45    24    42 1   
    46    31    43 1   
@<TRIPOS>SUBSTRUCTURE
     1 2RT         1 TEMP              0 ****  ****    0 ROOT
