@<TRIPOS>MOLECULE
2RU
   47    48     1     0     0
SMALL
bcc


@<TRIPOS>ATOM
      1 F23          0.0000     0.0000     0.0000 f          1 2RU      -0.209633
      2 C20          1.3990     0.0000     0.0000 c3         1 2RU       0.642200
      3 F21          1.8650     0.0000     1.3190 f          1 2RU      -0.209633
      4 F22          1.8650    -1.1420    -0.6600 f          1 2RU      -0.209633
      5 C19          1.9020     1.2300    -0.7110 ca         1 2RU      -0.234300
      6 C18          2.1260     1.1960    -2.0750 ca         1 2RU      -0.020000
      7 C17          2.5860     2.3220    -2.7290 ca         1 2RU      -0.134500
      8 C24          2.1320     2.3930     0.0020 ca         1 2RU      -0.020000
      9 C25          2.5930     3.5220    -0.6470 ca         1 2RU      -0.134500
     10 C1           2.8240     3.4890    -2.0150 ca         1 2RU      -0.036400
     11 N2           3.2920     4.6310    -2.6750 ns         1 2RU      -0.054100
     12 C3           4.0830     5.5090    -2.0260 c          1 2RU       0.568100
     13 O16          4.4700     5.2600    -0.9010 o          1 2RU      -0.691100
     14 N4           4.4420     6.6610    -2.6230 ns         1 2RU      -0.205900
     15 C5           5.3020     7.6150    -1.9180 c3         1 2RU       0.030700
     16 C15          5.0680     9.0210    -2.4750 c3         1 2RU      -0.059900
     17 C14          5.9430    10.0210    -1.7110 c3         1 2RU       0.051500
     18 N8           7.3400     9.5710    -1.7740 n          1 2RU      -0.162800
     19 C7           7.6620     8.2030    -1.3470 c3         1 2RU       0.051500
     20 C6           6.7680     7.2240    -2.1150 c3         1 2RU      -0.059900
     21 C9           8.3080    10.3990    -2.2150 c          1 2RU       0.595100
     22 O13          8.0490    11.5570    -2.4630 o          1 2RU      -0.644100
     23 C10          9.7120     9.8830    -2.4020 c3         1 2RU      -0.129700
     24 C12         10.5140    10.8800    -3.2400 c3         1 2RU       0.013400
     25 C11         10.3780     9.7130    -1.0360 c3         1 2RU       0.013400
     26 H1           1.9400     0.2860    -2.6310 ha         1 2RU       0.117000
     27 H2           2.7640     2.2940    -3.7970 ha         1 2RU       0.132000
     28 H3           1.9500     2.4180     1.0700 ha         1 2RU       0.117000
     29 H4           2.7750     4.4320    -0.0880 ha         1 2RU       0.132000
     30 H5           3.0160     4.8110    -3.6200 hn         1 2RU       0.164500
     31 H6           4.1090     6.8730    -3.5430 hn         1 2RU       0.169500
     32 H7           5.0670     7.6060    -0.8600 h1         1 2RU       0.062700
     33 H8           5.3320     9.0410    -3.5260 hc         1 2RU       0.028950
     34 H9           4.0250     9.2880    -2.3540 hc         1 2RU       0.028950
     35 H10          5.6230    10.0660    -0.6770 h1         1 2RU       0.036200
     36 H11          5.8560    11.0000    -2.1670 h1         1 2RU       0.036200
     37 H12          8.7020     7.9900    -1.5640 h1         1 2RU       0.036200
     38 H13          7.4800     8.1030    -0.2840 h1         1 2RU       0.036200
     39 H14          7.0130     7.2630    -3.1690 hc         1 2RU       0.028950
     40 H15          6.9260     6.2200    -1.7380 hc         1 2RU       0.028950
     41 H16          9.6810     8.9270    -2.9110 hc         1 2RU       0.034700
     42 H17         10.5700    11.8280    -2.7180 hc         1 2RU       0.010367
     43 H18         10.0260    11.0240    -4.1970 hc         1 2RU       0.010367
     44 H19         11.5150    10.4960    -3.3990 hc         1 2RU       0.010367
     45 H20         11.2930    10.2930    -1.0050 hc         1 2RU       0.010367
     46 H21         10.6090     8.6670    -0.8740 hc         1 2RU       0.010367
     47 H22          9.7060    10.0590    -0.2600 hc         1 2RU       0.010367
@<TRIPOS>BOND
     1     1     2 1   
     2     2     3 1   
     3     2     4 1   
     4     2     5 1   
     5     5     6 ar  
     6     5     8 ar  
     7     6     7 ar  
     8     6    26 1   
     9     7    10 ar  
    10     7    27 1   
    11     8     9 ar  
    12     8    28 1   
    13     9    10 ar  
    14     9    29 1   
    15    10    11 1   
    16    11    12 1   
    17    11    30 1   
    18    12    13 2   
    19    12    14 1   
    20    14    15 1   
    21    14    31 1   
    22    15    16 1   
    23    15    20 1   
    24    15    32 1   
    25    16    17 1   
    26    16    33 1   
    27    16    34 1   
    28    17    18 1   
    29    17    35 1   
    30    17    36 1   
    31    18    19 1   
    32    18    21 1   
    33    19    20 1   
    34    19    37 1   
    35    19    38 1   
    36    20    39 1   
    37    20    40 1   
    38    21    22 2   
    39    21    23 1   
    40    23    24 1   
    41    23    25 1   
    42    23    41 1   
    43    24    42 1   
    44    24    43 1   
    45    24    44 1   
    46    25    45 1   
    47    25    46 1   
    48    25    47 1   
@<TRIPOS>SUBSTRUCTURE
     1 2RU         1 TEMP              0 ****  ****    0 ROOT
