@<TRIPOS>MOLECULE
molecule
   45    46     1     0     0
SMALL
bcc


@<TRIPOS>ATOM
      1 F23          0.0000     0.0000     0.0000 f          1 2RV      -0.204967
      2 C20          1.3990     0.0000     0.0000 c3         1 2RV       0.795700
      3 F21          1.8660     0.0000     1.3200 f          1 2RV      -0.204967
      4 F22          1.8660    -1.1420    -0.6600 f          1 2RV      -0.204967
      5 O19          1.8750     1.1670    -0.6730 os         1 2RV      -0.341900
      6 C18          1.5100     1.3220    -1.9740 ca         1 2RV       0.104100
      7 C17          0.7060     0.3710    -2.5860 ca         1 2RV      -0.150000
      8 C16          0.3350     0.5280    -3.9060 ca         1 2RV      -0.113000
      9 C24          1.9380     2.4320    -2.6860 ca         1 2RV      -0.150000
     10 C25          1.5660     2.5900    -4.0070 ca         1 2RV      -0.113000
     11 C1           0.7660     1.6370    -4.6210 ca         1 2RV       0.056600
     12 N2           0.3890     1.7960    -5.9620 ns         1 2RV      -0.493100
     13 C3          -0.8160     1.3600    -6.3810 c          1 2RV       0.782100
     14 O15         -1.6130     0.9150    -5.5780 o          1 2RV      -0.648100
     15 N4          -1.1350     1.4140    -7.6890 ns         1 2RV      -0.596900
     16 C5          -2.4440     0.9400    -8.1440 c3         1 2RV       0.134700
     17 C14         -2.3530     0.5230    -9.6130 c3         1 2RV      -0.115900
     18 C13         -3.7160    -0.0060   -10.0750 c3         1 2RV       0.107500
     19 N8          -4.7360     1.0140    -9.8000 n          1 2RV      -0.499800
     20 C7          -4.8480     1.5520    -8.4360 c3         1 2RV       0.107500
     21 C6          -3.4740     2.0620    -7.9930 c3         1 2RV      -0.115900
     22 C9          -5.5540     1.4490   -10.7790 c          1 2RV       0.663100
     23 O12         -5.4510     0.9980   -11.9000 o          1 2RV      -0.610100
     24 C10         -6.5960     2.4960   -10.4800 c3         1 2RV      -0.158400
     25 C11         -7.3830     2.8090   -11.7550 c3         1 2RV      -0.077100
     26 H1           0.3690    -0.4940    -2.0280 ha         1 2RV       0.151500
     27 H2          -0.2920    -0.2150    -4.3850 ha         1 2RV       0.154500
     28 H3           2.5630     3.1760    -2.2070 ha         1 2RV       0.151500
     29 H4           1.9020     3.4560    -4.5640 ha         1 2RV       0.154500
     30 H5           1.0250     2.2100    -6.6150 hn         1 2RV       0.318500
     31 H6          -0.4710     1.7610    -8.3520 hn         1 2RV       0.309500
     32 H7          -2.7520     0.0890    -7.5480 h1         1 2RV       0.082700
     33 H8          -2.0760     1.3800   -10.2150 hc         1 2RV       0.057950
     34 H9          -1.6090    -0.2570    -9.7210 hc         1 2RV       0.057950
     35 H10         -3.9550    -0.9130    -9.5330 h1         1 2RV       0.060700
     36 H11         -3.6840    -0.2090   -11.1380 h1         1 2RV       0.060700
     37 H12         -5.5590     2.3690    -8.4260 h1         1 2RV       0.060700
     38 H13         -5.1780     0.7680    -7.7640 h1         1 2RV       0.060700
     39 H14         -3.1850     2.9020    -8.6130 hc         1 2RV       0.057950
     40 H15         -3.5220     2.3700    -6.9560 hc         1 2RV       0.057950
     41 H16         -7.2740     2.1250    -9.7200 hc         1 2RV       0.058700
     42 H17         -6.1120     3.3970   -10.1240 hc         1 2RV       0.058700
     43 H18         -7.8670     1.9080   -12.1110 hc         1 2RV       0.043700
     44 H19         -8.1320     3.5620   -11.5410 hc         1 2RV       0.043700
     45 H20         -6.7050     3.1800   -12.5150 hc         1 2RV       0.043700
@<TRIPOS>BOND
     1     3     2 1
     2     5     2 1
     3     5     6 1
     4     2     4 1
     5     2     1 1
     6     6     9 ar
     7     6     7 ar
     8     9    10 ar
     9     7     8 ar
    10    10    11 ar
    11     8    11 ar
    12    11    12 1
    13    12    13 1
    14    13    14 2
    15    13    15 1
    16    15    16 1
    17    16    17 1
    18    16    21 1
    19    17    18 1
    20    21    20 1
    21    20    19 1
    22    19    18 1
    23    19    22 1
    24    24    22 1
    25    24    25 1
    26    22    23 2
    27     7    26 1
    28     8    27 1
    29     9    28 1
    30    10    29 1
    31    12    30 1
    32    15    31 1
    33    16    32 1
    34    17    33 1
    35    17    34 1
    36    18    35 1
    37    18    36 1
    38    20    37 1
    39    20    38 1
    40    21    39 1
    41    21    40 1
    42    24    41 1
    43    24    42 1
    44    25    43 1
    45    25    44 1
    46    25    45 1
@<TRIPOS>SUBSTRUCTURE
     1 2RV         1 TEMP              0 ****  ****    0 ROOT
