@<TRIPOS>MOLECULE
molecule
   55    58     1     0     0
SMALL
bcc


@<TRIPOS>ATOM
      1 N1           0.0000     0.0000     0.0000 nb         1 2RW      -0.790000
      2 C2           1.3210     0.0000     0.0000 ca         1 2RW       0.675900
      3 N3           2.0270     0.0000     1.1110 nb         1 2RW      -0.730000
      4 C4           1.4260    -0.0010     2.2960 ca         1 2RW       0.440800
      5 C5           0.0220    -0.0010     2.3490 ca         1 2RW      -0.150200
      6 C6          -0.6880    -0.0010     1.1370 ca         1 2RW       0.752200
      7 N6          -2.0720    -0.0020     1.1270 nv         1 2RW      -1.072500
      8 N7          -0.3280    -0.0010     3.6590 nc         1 2RW      -0.606100
      9 C8           0.7470    -0.0010     4.3940 cd         1 2RW       0.477700
     10 N9           1.8550    -0.0010     3.5990 na         1 2RW      -0.246000
     11 C1'          3.2460    -0.0020     4.0540 c3         1 2RW       0.250800
     12 C2'          3.8050     1.4440     4.1040 c3         1 2RW       0.085100
     13 O2'          4.3250     1.8340     2.8320 oh         1 2RW      -0.572800
     14 C3'          4.9410     1.3170     5.1490 c3         1 2RW       0.084100
     15 O3'          6.2030     1.1570     4.4990 oh         1 2RW      -0.583800
     16 O4'          3.3330    -0.4430     5.4260 os         1 2RW      -0.380600
     17 C4'          4.5790     0.0510     5.9490 c3         1 2RW       0.116100
     18 C5'          4.4210     0.3970     7.4300 c3         1 2RW       0.235400
     19 O5'          4.1830    -0.7980     8.1770 os         1 2RW      -0.595200
     20 PA           3.9700    -0.8070     9.7730 p5         1 2RW       1.439800
     21 O1A          2.6150    -0.0170    10.1370 o          1 2RW      -0.837500
     22 O2A          5.1180    -0.1440    10.4280 o          1 2RW      -0.837500
     23 O3A          3.8600    -2.3270    10.2900 os         1 2RW      -0.717800
     24 PB           3.9510    -3.0240    11.7390 p5         1 2RW       1.442800
     25 O1B          3.1500    -2.2470    12.7120 o          1 2RW      -0.839500
     26 O2B          5.4870    -3.0660    12.2190 o          1 2RW      -0.839500
     27 O5D          3.3750    -4.5260    11.6480 os         1 2RW      -0.599200
     28 C5D          3.2230    -5.3700    12.7910 c3         1 2RW       0.245400
     29 O4D          3.6150    -7.4550    11.5110 os         1 2RW      -0.373600
     30 C1D          3.2190    -8.8430    11.5700 c3         1 2RW       0.122400
     31 C2D          2.8180    -9.0760    13.0440 c3         1 2RW      -0.146400
     32 O3D          1.0730    -7.6370    13.9710 oh         1 2RW      -0.602800
     33 C3D          2.4410    -7.6690    13.5580 c3         1 2RW       0.108100
     34 C4D          2.6590    -6.7520    12.3340 c3         1 2RW       0.119100
     35 H1           1.8420     0.0010    -0.9500 h5         1 2RW       0.049100
     36 H2          -2.5720    -0.8690     1.1090 hn         1 2RW       0.435300
     37 H3          -2.5730     0.8650     1.1100 hn         1 2RW       0.435300
     38 H4           0.7590    -0.0020     5.4770 h5         1 2RW       0.118800
     39 H5           3.8620    -0.6240     3.4160 h2         1 2RW       0.102700
     40 H6           3.0460     2.1370     4.4470 h1         1 2RW       0.055700
     41 H7           4.2180     2.7640     2.7200 ho         1 2RW       0.393000
     42 H8           4.9510     2.1820     5.8000 h1         1 2RW       0.054700
     43 H9           6.8090     1.8000     4.8280 ho         1 2RW       0.398000
     44 H10          5.3520    -0.6970     5.8210 h1         1 2RW       0.085700
     45 H11          5.3260     0.8730     7.7880 h1         1 2RW       0.035200
     46 H12          3.5830     1.0730     7.5550 h1         1 2RW       0.035200
     47 H15          2.5460    -4.9050    13.4970 h1         1 2RW       0.034200
     48 H16          4.1880    -5.5190    13.2610 h1         1 2RW       0.034200
     49 H19          3.6550    -9.4720    13.6050 hc         1 2RW       0.041700
     50 H20          1.9650    -9.7410    13.1030 hc         1 2RW       0.041700
     51 H21          1.0290    -7.6520    14.9120 ho         1 2RW       0.390000
     52 H22          3.0960    -7.3760    14.3700 h1         1 2RW       0.046700
     53 H23          1.7280    -6.6180    11.7960 h1         1 2RW       0.067700
     54 H17          4.0500    -9.4830    11.3010 h1         1 2RW       0.035200
     55 H18          2.3720    -9.0210    10.9180 h1         1 2RW       0.035200
@<TRIPOS>BOND
     1    30    31 1
     2    30    29 1
     3    31    33 1
     4    32    33 1
     5    29    34 1
     6    33    34 1
     7    34    28 1
     8    28    27 1
     9    15    14 1
    10    27    24 1
    11    17    18 1
    12    17    16 1
    13    17    14 1
    14    18    19 1
    15    16    11 1
    16    14    12 1
    17    19    20 1
    18    24    25 1
    19    24    23 1
    20    24    26 1
    21    11    12 1
    22    11    10 1
    23    23    20 1
    24    12    13 1
    25     3     2 ar
    26     3     4 ar
    27    22    20 1
    28    20    21 1
    29     2     1 ar
    30     4    10 1
    31     4     5 ar
    32    10     9 1
    33     1     6 ar
    34     9     8 2
    35     5     6 ar
    36     5     8 1
    37     6     7 1
    38     2    35 1
    39     7    36 1
    40     7    37 1
    41     9    38 1
    42    11    39 1
    43    12    40 1
    44    13    41 1
    45    14    42 1
    46    15    43 1
    47    17    44 1
    48    18    45 1
    49    18    46 1
    50    28    47 1
    51    28    48 1
    52    30    54 1
    53    30    55 1
    54    31    49 1
    55    31    50 1
    56    32    51 1
    57    33    52 1
    58    34    53 1
@<TRIPOS>SUBSTRUCTURE
     1 2RW         1 TEMP              0 ****  ****    0 ROOT
