@<TRIPOS>MOLECULE
molecule
   50    54     1     0     0
SMALL
bcc


@<TRIPOS>ATOM
      1 F1           0.0000     0.0000     0.0000 f          1 2RY      -0.222633
      2 C22          1.3990     0.0000     0.0000 c3         1 2RY       0.672200
      3 F2           1.8650     0.0000     1.3190 f          1 2RY      -0.222633
      4 F3           1.8660    -1.1420    -0.6590 f          1 2RY      -0.222633
      5 C21          1.9020     1.2300    -0.7100 ca         1 2RY      -0.163300
      6 C20          1.0030     2.1400    -1.2360 ca         1 2RY      -0.079000
      7 C19          1.4640     3.2690    -1.8880 ca         1 2RY      -0.131000
      8 C18          2.8220     3.4880    -2.0140 ca         1 2RY      -0.097000
      9 C17          3.7200     2.5780    -1.4880 ca         1 2RY      -0.119000
     10 C16          3.2610     1.4530    -0.8310 ca         1 2RY      -0.015300
     11 C9           4.2400     0.4640    -0.2540 c3         1 2RY      -0.131100
     12 C8           4.4790    -0.6460    -1.2450 c          1 2RY       0.666100
     13 O1           3.9100    -0.6340    -2.3160 o          1 2RY      -0.591100
     14 N4           5.3250    -1.6490    -0.9420 n          1 2RY      -0.493800
     15 C15          6.0170    -1.6800     0.3540 c3         1 2RY       0.084500
     16 C7           7.5250    -1.7830     0.1020 c3         1 2RY       0.219300
     17 C6           5.5670    -2.7380    -1.9000 c3         1 2RY       0.084500
     18 C5           7.0760    -2.8370    -2.1560 c3         1 2RY       0.219300
     19 N3           7.7690    -2.8720    -0.8550 nh         1 2RY      -0.818300
     20 C1           8.6270    -3.8970    -0.5450 ca         1 2RY       0.749200
     21 C3           9.8450    -3.6510     0.2590 ca         1 2RY      -0.207600
     22 N1           8.3820    -5.1360    -0.9520 nb         1 2RY      -0.811000
     23 C2           9.2000    -6.1230    -0.6510 ca         1 2RY       0.711900
     24 N2          10.2970    -5.9500     0.0620 nb         1 2RY      -0.745000
     25 C4          10.6540    -4.7650     0.5220 ca         1 2RY       0.476900
     26 S1          11.8920    -4.3450     1.3720 sx         1 2RY       0.099400
     27 C11         11.5650    -2.6180     1.5160 cc         1 2RY      -0.442000
     28 C10         10.3000    -2.4260     0.7990 cc         1 2RY      -0.149000
     29 C12         11.9610    -1.4270     1.9990 cc         1 2RY      -0.022000
     30 C13         10.9890    -0.4060     1.6040 cd         1 2RY      -0.185000
     31 C14          9.9850    -0.9960     0.9080 cd         1 2RY      -0.107000
     32 H1          -0.0620     1.9680    -1.1370 ha         1 2RY       0.150000
     33 H2           0.7600     3.9810    -2.3000 ha         1 2RY       0.138000
     34 H3           3.1830     4.3720    -2.5270 ha         1 2RY       0.136000
     35 H4           4.7850     2.7510    -1.5850 ha         1 2RY       0.136000
     36 H5           5.1760     0.9650    -0.0410 hc         1 2RY       0.077200
     37 H6           3.8370     0.0490     0.6620 hc         1 2RY       0.077200
     38 H7           5.8020    -0.7700     0.9010 h1         1 2RY       0.067700
     39 H8           5.6850    -2.5400     0.9230 h1         1 2RY       0.067700
     40 H9           8.0350    -1.9980     1.0340 h1         1 2RY       0.068700
     41 H10          7.8890    -0.8490    -0.3100 h1         1 2RY       0.068700
     42 H11          5.2070    -3.6720    -1.4860 h1         1 2RY       0.067700
     43 H12          5.0550    -2.5230    -2.8300 h1         1 2RY       0.067700
     44 H13          7.4070    -1.9740    -2.7210 h1         1 2RY       0.068700
     45 H14          7.2920    -3.7450    -2.7070 h1         1 2RY       0.068700
     46 H15          8.9620    -7.1190    -1.0040 h5         1 2RY       0.058100
     47 H16         13.0150    -1.1830     2.0420 ha         1 2RY       0.149000
     48 H17         10.7740     0.4230     2.2670 ha         1 2RY       0.149000
     49 H18          9.5260    -0.4780     0.0750 ha         1 2RY       0.152000
     50 H19         12.5700    -5.1040     2.2240 hs         1 2RY       0.224000
@<TRIPOS>BOND
     1    23    24 ar  
     2    23    22 ar  
     3    24    25 ar  
     4    22    20 ar  
     5    25    26 1   
     6    25    21 ar  
     7    20    21 ar  
     8    20    19 1   
     9    26    27 2   
    10    16    19 1   
    11    16    15 1   
    12    21    28 1   
    13     1     2 1   
    14    19    18 1   
    15    18    17 1   
    16     3     2 1   
    17    15    14 1   
    18    27    28 1   
    19    27    29 1   
    20     2     4 1   
    21     2     5 1   
    22    28    31 2   
    23    14    17 1   
    24    14    12 1   
    25    13    12 2   
    26    12    11 1   
    27    29    30 2   
    28     5     6 ar  
    29     5    10 ar  
    30    31    30 1   
    31    11    10 1   
    32     6     7 ar  
    33    10     9 ar  
    34     7     8 ar  
    35     9     8 ar  
    36     6    32 1   
    37     7    33 1   
    38     8    34 1   
    39     9    35 1   
    40    11    36 1   
    41    11    37 1   
    42    15    38 1   
    43    15    39 1   
    44    16    40 1   
    45    16    41 1   
    46    17    42 1   
    47    17    43 1   
    48    18    44 1   
    49    18    45 1   
    50    23    46 1   
    51    29    47 1   
    52    30    48 1   
    53    31    49 1   
    54    26    50 1   
@<TRIPOS>SUBSTRUCTURE
     1 2RY         1 TEMP              0 ****  ****    0 ROOT
