@<TRIPOS>MOLECULE
molecule
   73    75     1     0     0
SMALL
bcc


@<TRIPOS>ATOM
      1 C1           0.0000     0.0000     0.0000 ca         1 2RZ      -0.134000
      2 C2           1.3820     0.0000     0.0000 ca         1 2RZ      -0.129500
      3 C3           2.0730     0.0000     1.1970 ca         1 2RZ      -0.108500
      4 C7           2.3930     1.4420     4.1410 c3         1 2RZ       0.186500
      5 C9           3.2510     1.4430     5.3800 c          1 2RZ       0.644100
      6 C12          0.0010     0.0000     2.3940 ca         1 2RZ      -0.108500
      7 C13          5.3150     0.8910     6.5520 c3         1 2RZ       0.165300
      8 C14          6.6280     0.2170     6.2540 ca         1 2RZ      -0.120300
      9 C15          7.6980     0.9630     5.7910 ca         1 2RZ      -0.176000
     10 C16          8.9060     0.3450     5.5160 ca         1 2RZ       0.114100
     11 C21         -3.3980     3.7790     8.8370 ca         1 2RZ      -0.187000
     12 C22         -2.7640     4.7910     9.5390 ca         1 2RZ       0.123100
     13 C24         -1.8230     5.6170     7.4870 ca         1 2RZ      -0.169000
     14 C30         -3.7420     3.9030    11.5160 c3         1 2RZ       0.127700
     15 C31         -2.2880     4.4950     5.2990 c3         1 2RZ      -0.105100
     16 C32         -1.0970     3.6280     4.9860 c          1 2RZ       0.658100
     17 C34          7.9670    -1.7690     6.1680 ca         1 2RZ      -0.194000
     18 C35          9.0410    -1.0270     5.7060 ca         1 2RZ       0.125100
     19 C4           1.3830     0.0000     2.3940 ca         1 2RZ      -0.045300
     20 C5          -0.6910    -0.0000     1.1980 ca         1 2RZ      -0.129500
     21 C6           2.1370    -0.0000     3.6990 c3         1 2RZ      -0.049100
     22 N8           1.1150     2.0980     4.4310 nu         1 2RZ      -0.872200
     23 N11          4.4790     0.8900     5.3480 ns         1 2RZ      -0.585900
     24 C17          6.7640    -1.1450     6.4460 ca         1 2RZ      -0.111000
     25 C18          0.3930     2.6760     3.4160 c2         1 2RZ       0.706800
     26 N19          0.7880     2.5510     2.1820 n2         1 2RZ      -0.943100
     27 N20         -0.7550     3.3900     3.7040 ns         1 2RZ      -0.532400
     28 C23         -1.9730     5.7150     8.8610 ca         1 2RZ       0.121100
     29 C25         -2.4530     4.6000     6.7930 ca         1 2RZ      -0.076300
     30 C26         -3.2400     3.6830     7.4670 ca         1 2RZ      -0.109000
     31 C29         -0.5540     7.6220     8.7840 c3         1 2RZ       0.126700
     32 O33         -0.4450     3.1440     5.8860 o          1 2RZ      -0.566100
     33 O36         10.2240    -1.6390     5.4310 os         1 2RZ      -0.311900
     34 O37          9.9570     1.0770     5.0610 os         1 2RZ      -0.312900
     35 C38          9.7460     2.4790     4.8900 c3         1 2RZ       0.126700
     36 C39         10.2880    -3.0510     5.6420 c3         1 2RZ       0.126700
     37 H1          -0.5420    -0.0000    -0.9380 ha         1 2RZ       0.121000
     38 H2           1.9230     0.0000    -0.9380 ha         1 2RZ       0.121000
     39 H3           3.1570    -0.0000     1.1960 ha         1 2RZ       0.122500
     40 H4           2.9020     1.9780     3.3480 h1         1 2RZ       0.093700
     41 H5          -0.5410     0.0000     3.3320 ha         1 2RZ       0.122500
     42 H6           4.8060     0.3560     7.3450 h1         1 2RZ       0.059200
     43 H7           5.4960     1.9120     6.8650 h1         1 2RZ       0.059200
     44 H8           7.5900     2.0310     5.6440 ha         1 2RZ       0.145000
     45 H9          -4.0140     3.0600     9.3630 ha         1 2RZ       0.140000
     46 H10         -1.2080     6.3340     6.9570 ha         1 2RZ       0.140000
     47 H11         -3.7770     4.0910    12.5830 h1         1 2RZ       0.040367
     48 H12         -4.7440     3.9580    11.1070 h1         1 2RZ       0.040367
     49 H13         -3.3320     2.9160    11.3370 h1         1 2RZ       0.040367
     50 H14         -2.1360     5.4830     4.8820 hc         1 2RZ       0.068700
     51 H15         -3.1790     4.0540     4.8670 hc         1 2RZ       0.068700
     52 H16          8.0700    -2.8370     6.3180 ha         1 2RZ       0.143000
     53 H17         -1.7750    -0.0000     1.1980 ha         1 2RZ       0.121000
     54 H18          3.0830    -0.5120     3.5700 hc         1 2RZ       0.052700
     55 H19          1.5500    -0.5100     4.4540 hc         1 2RZ       0.052700
     56 H20          0.7550     2.0990     5.3650 hn         1 2RZ       0.505800
     57 H21          4.8340     0.5090     4.4940 hn         1 2RZ       0.318500
     58 H22          5.9240    -1.7260     6.8080 ha         1 2RZ       0.137000
     59 H23          0.2620     2.9720     1.4430 hn         1 2RZ       0.398400
     60 H24         -1.3090     3.7660     2.9600 hn         1 2RZ       0.332500
     61 H25         -3.7340     2.8900     6.9200 ha         1 2RZ       0.129000
     62 H26          0.2390     7.0780     8.2840 h1         1 2RZ       0.040700
     63 H27         -0.1220     8.3600     9.4480 h1         1 2RZ       0.040700
     64 H28         -1.1730     8.1180     8.0460 h1         1 2RZ       0.040700
     65 H29         10.6600     2.9420     4.5370 h1         1 2RZ       0.041367
     66 H30          9.4610     2.9200     5.8380 h1         1 2RZ       0.041367
     67 H31          8.9570     2.6400     4.1650 h1         1 2RZ       0.041367
     68 H32         10.0830    -3.2700     6.6830 h1         1 2RZ       0.041367
     69 H33          9.5520    -3.5440     5.0180 h1         1 2RZ       0.041367
     70 H34         11.2770    -3.4100     5.3860 h1         1 2RZ       0.041367
     71 O10          2.8370     1.9430     6.4040 o          1 2RZ      -0.595100
     72 O27         -2.9160     4.8840    10.8870 os         1 2RZ      -0.312900
     73 O28         -1.3490     6.7100     9.5450 os         1 2RZ      -0.311900
@<TRIPOS>BOND
     1     2     3 ar  
     2     2     1 ar  
     3     3    19 ar  
     4     1    20 ar  
     5    26    25 2   
     6    23     7 1   
     7    23     5 1   
     8    19    21 1   
     9    19     6 ar  
    10    20     6 ar  
    11     4    21 1   
    12     4     5 1   
    13     4    22 1   
    14     7     8 1   
    15    25    22 1   
    16    25    27 1   
    17    24     8 ar  
    18    24    17 ar  
    19     5    71 2   
    20    31    73 1   
    21     8     9 ar  
    22    17    18 ar  
    23    27    16 1   
    24     9    10 ar  
    25    73    28 1   
    26    18    10 ar  
    27    18    33 1   
    28    16    32 2   
    29    16    15 1   
    30    36    33 1   
    31    13    28 ar  
    32    13    29 ar  
    33    10    34 1   
    34    28    12 ar  
    35    15    29 1   
    36    29    30 ar  
    37    34    35 1   
    38    12    72 1   
    39    12    11 ar  
    40    72    14 1   
    41    30    11 ar  
    42     1    37 1   
    43     2    38 1   
    44     3    39 1   
    45     4    40 1   
    46     6    41 1   
    47     7    42 1   
    48     7    43 1   
    49     9    44 1   
    50    11    45 1   
    51    13    46 1   
    52    14    47 1   
    53    14    48 1   
    54    14    49 1   
    55    15    50 1   
    56    15    51 1   
    57    17    52 1   
    58    20    53 1   
    59    21    54 1   
    60    21    55 1   
    61    22    56 1   
    62    23    57 1   
    63    24    58 1   
    64    26    59 1   
    65    27    60 1   
    66    30    61 1   
    67    31    62 1   
    68    31    63 1   
    69    31    64 1   
    70    35    65 1   
    71    35    66 1   
    72    35    67 1   
    73    36    68 1   
    74    36    69 1   
    75    36    70 1   
@<TRIPOS>SUBSTRUCTURE
     1 2RZ         1 TEMP              0 ****  ****    0 ROOT
