@<TRIPOS>MOLECULE
2RZ
   73    75     1     0     0
SMALL
bcc


@<TRIPOS>ATOM
      1 C1           0.0000     0.0000     0.0000 ca         1 2RZ      -0.088000
      2 C2           1.3820     0.0000     0.0000 ca         1 2RZ      -0.086500
      3 C3           2.0730     0.0000     1.1970 ca         1 2RZ      -0.095000
      4 C7           2.3930     1.4420     4.1410 c3         1 2RZ       0.076500
      5 C9           3.2510     1.4430     5.3800 c          1 2RZ       0.561100
      6 C12          0.0010     0.0000     2.3940 ca         1 2RZ      -0.095000
      7 C13          5.3150     0.8910     6.5520 c3         1 2RZ       0.117300
      8 C14          6.6280     0.2170     6.2540 ca         1 2RZ      -0.129300
      9 C15          7.6980     0.9630     5.7910 ca         1 2RZ      -0.163000
     10 C16          8.9060     0.3450     5.5160 ca         1 2RZ       0.118100
     11 C21         -3.3980     3.7790     8.8370 ca         1 2RZ      -0.174000
     12 C22         -2.7640     4.7910     9.5390 ca         1 2RZ       0.122100
     13 C24         -1.8230     5.6170     7.4870 ca         1 2RZ      -0.158000
     14 C30         -3.7420     3.9030    11.5160 c3         1 2RZ       0.241700
     15 C31         -2.2880     4.4950     5.2990 c3         1 2RZ      -0.031100
     16 C32         -1.0970     3.6280     4.9860 c          1 2RZ       0.557100
     17 C34          7.9670    -1.7690     6.1680 ca         1 2RZ      -0.181000
     18 C35          9.0410    -1.0270     5.7060 ca         1 2RZ       0.128100
     19 C4           1.3830     0.0000     2.3940 ca         1 2RZ      -0.105300
     20 C5          -0.6910    -0.0000     1.1980 ca         1 2RZ      -0.086500
     21 C6           2.1370    -0.0000     3.6990 c3         1 2RZ       0.010900
     22 N8           1.1150     2.0980     4.4310 nu         1 2RZ      -0.565200
     23 N11          4.4790     0.8900     5.3480 ns         1 2RZ      -0.196900
     24 C17          6.7640    -1.1450     6.4460 ca         1 2RZ      -0.081000
     25 C18          0.3930     2.6760     3.4160 c2         1 2RZ       0.407800
     26 N19          0.7880     2.5510     2.1820 n2         1 2RZ      -0.889100
     27 N20         -0.7550     3.3900     3.7040 ns         1 2RZ      -0.031400
     28 C23         -1.9730     5.7150     8.8610 ca         1 2RZ       0.124100
     29 C25         -2.4530     4.6000     6.7930 ca         1 2RZ      -0.076300
     30 C26         -3.2400     3.6830     7.4670 ca         1 2RZ      -0.083000
     31 C29         -0.5540     7.6220     8.7840 c3         1 2RZ       0.240700
     32 O33         -0.4450     3.1440     5.8860 o          1 2RZ      -0.610100
     33 O36         10.2240    -1.6390     5.4310 os         1 2RZ      -0.291900
     34 O37          9.9570     1.0770     5.0610 os         1 2RZ      -0.291900
     35 C38          9.7460     2.4790     4.8900 c3         1 2RZ       0.241700
     36 C39         10.2880    -3.0510     5.6420 c3         1 2RZ       0.241700
     37 H1          -0.5420    -0.0000    -0.9380 ha         1 2RZ       0.101000
     38 H2           1.9230     0.0000    -0.9380 ha         1 2RZ       0.100500
     39 H3           3.1570    -0.0000     1.1960 ha         1 2RZ       0.104000
     40 H4           2.9020     1.9780     3.3480 h1         1 2RZ       0.046700
     41 H5          -0.5410     0.0000     3.3320 ha         1 2RZ       0.104000
     42 H6           5.4960     1.9120     6.8650 h1         1 2RZ       0.030200
     43 H7           4.8060     0.3560     7.3450 h1         1 2RZ       0.030200
     44 H8           7.5900     2.0310     5.6440 ha         1 2RZ       0.127000
     45 H9          -4.0140     3.0600     9.3630 ha         1 2RZ       0.121000
     46 H10         -1.2080     6.3340     6.9570 ha         1 2RZ       0.122000
     47 H11         -3.3320     2.9160    11.3370 h1         1 2RZ      -0.003967
     48 H12         -3.7850     4.0870    12.5830 h1         1 2RZ      -0.003967
     49 H13         -4.7400     3.9610    11.0990 h1         1 2RZ      -0.003967
     50 H14         -3.1790     4.0540     4.8670 hc         1 2RZ       0.033200
     51 H15         -2.1360     5.4830     4.8820 hc         1 2RZ       0.033200
     52 H16          8.0700    -2.8370     6.3180 ha         1 2RZ       0.124000
     53 H17         -1.7750    -0.0000     1.1980 ha         1 2RZ       0.100500
     54 H18          3.0830    -0.5120     3.5700 hc         1 2RZ       0.027700
     55 H19          1.5500    -0.5100     4.4540 hc         1 2RZ       0.027700
     56 H20          0.7560     2.1010     5.3650 hn         1 2RZ       0.392800
     57 H21          4.8350     0.5120     4.4930 hn         1 2RZ       0.179500
     58 H22          5.9240    -1.7260     6.8080 ha         1 2RZ       0.109000
     59 H23          1.6190     2.0330     1.9730 hn         1 2RZ       0.368400
     60 H24         -1.3090     3.7660     2.9600 hn         1 2RZ       0.184500
     61 H25         -3.7340     2.8900     6.9200 ha         1 2RZ       0.102000
     62 H26         -0.1220     8.3630     9.4450 h1         1 2RZ      -0.003300
     63 H27         -1.1760     8.1140     8.0460 h1         1 2RZ      -0.003300
     64 H28          0.2390     7.0780     8.2840 h1         1 2RZ      -0.003300
     65 H29          8.9570     2.6400     4.1650 h1         1 2RZ      -0.002300
     66 H30          9.4610     2.9200     5.8380 h1         1 2RZ      -0.002300
     67 H31         10.6600     2.9420     4.5370 h1         1 2RZ      -0.002300
     68 H32         10.0830    -3.2700     6.6830 h1         1 2RZ      -0.002300
     69 H33          9.5520    -3.5440     5.0180 h1         1 2RZ      -0.002300
     70 H34         11.2770    -3.4100     5.3860 h1         1 2RZ      -0.002300
     71 O10          2.8370     1.9430     6.4040 o          1 2RZ      -0.626100
     72 O27         -2.9160     4.8840    10.8870 os         1 2RZ      -0.293900
     73 O28         -1.3490     6.7100     9.5450 os         1 2RZ      -0.292900
@<TRIPOS>BOND
     1     1     2 ar  
     2     1    20 ar  
     3     1    37 1   
     4     2     3 ar  
     5     2    38 1   
     6     3    19 ar  
     7     3    39 1   
     8     4     5 1   
     9     4    21 1   
    10     4    22 1   
    11     4    40 1   
    12     5    23 1   
    13     5    71 2   
    14     6    19 ar  
    15     6    20 ar  
    16     6    41 1   
    17     7     8 1   
    18     7    23 1   
    19     7    42 1   
    20     7    43 1   
    21     8     9 ar  
    22     8    24 ar  
    23     9    10 ar  
    24     9    44 1   
    25    10    18 ar  
    26    10    34 1   
    27    11    12 ar  
    28    11    30 ar  
    29    11    45 1   
    30    12    28 ar  
    31    12    72 1   
    32    13    28 ar  
    33    13    29 ar  
    34    13    46 1   
    35    14    47 1   
    36    14    48 1   
    37    14    49 1   
    38    14    72 1   
    39    15    16 1   
    40    15    29 1   
    41    15    50 1   
    42    15    51 1   
    43    16    27 1   
    44    16    32 2   
    45    17    18 ar  
    46    17    24 ar  
    47    17    52 1   
    48    18    33 1   
    49    19    21 1   
    50    20    53 1   
    51    21    54 1   
    52    21    55 1   
    53    22    25 1   
    54    22    56 1   
    55    23    57 1   
    56    24    58 1   
    57    25    26 2   
    58    25    27 1   
    59    26    59 1   
    60    27    60 1   
    61    28    73 1   
    62    29    30 ar  
    63    30    61 1   
    64    31    62 1   
    65    31    63 1   
    66    31    64 1   
    67    31    73 1   
    68    33    36 1   
    69    34    35 1   
    70    35    65 1   
    71    35    66 1   
    72    35    67 1   
    73    36    68 1   
    74    36    69 1   
    75    36    70 1   
@<TRIPOS>SUBSTRUCTURE
     1 2RZ         1 TEMP              0 ****  ****    0 ROOT
