@<TRIPOS>MOLECULE
molecule
   72    76     1     0     0
SMALL
bcc


@<TRIPOS>ATOM
      1 C1           0.0000     0.0000     0.0000 c3         1 2S0      -0.037200
      2 C2           1.5320     0.0000     0.0000 c3         1 2S0      -0.177400
      3 C3           2.0460     0.0000     1.4140 c          1 2S0       0.571300
      4 C4           1.3840     0.7090     2.4320 ce         1 2S0      -0.263200
      5 C5           0.1820     1.2820     2.2000 cf         1 2S0       0.003800
      6 C6          -0.5150     2.1130     3.2490 c3         1 2S0      -0.048200
      7 C7          -1.0750     3.3570     2.5590 c3         1 2S0      -0.073400
      8 C8          -2.0220     2.9920     1.4290 c3         1 2S0      -0.025500
      9 C9          -1.5080     1.8790     0.5520 c2         1 2S0      -0.069400
     10 C10         -0.4840     1.1060     0.9100 cf         1 2S0      -0.121200
     11 C11         -2.1800     1.5820    -0.7730 c3         1 2S0       0.009800
     12 C12         -2.4980     2.8810    -1.5280 c3         1 2S0      -0.054400
     13 C13         -3.2500     3.7870    -0.5690 c3         1 2S0      -0.046000
     14 C14         -2.2510     4.2090     0.5420 c3         1 2S0      -0.060700
     15 C15         -3.0090     5.3560     1.2250 c3         1 2S0      -0.081400
     16 C16         -3.6270     6.1290     0.0310 c3         1 2S0      -0.085400
     17 C17         -3.7340     5.1120    -1.1510 c3         1 2S0       0.071800
     18 C18         -4.4270     3.0280     0.0480 c3         1 2S0      -0.122100
     19 C20         -5.1630     5.0000    -1.6160 c          1 2S0       0.573100
     20 C21         -5.4660     4.5510    -3.0210 c3         1 2S0      -0.195100
     21 O3           3.0520    -0.6260     1.6830 o          1 2S0      -0.539100
     22 O20         -6.0660     5.2700    -0.8600 o          1 2S0      -0.510100
     23 C32         -3.4610     0.8280    -0.5230 ca         1 2S0      -0.124300
     24 C33         -3.6840     0.2390     0.7080 ca         1 2S0      -0.093500
     25 C34         -4.8560    -0.4530     0.9420 ca         1 2S0      -0.202000
     26 C35         -5.8130    -0.5550    -0.0610 ca         1 2S0       0.204600
     27 C36         -5.5850     0.0390    -1.2960 ca         1 2S0      -0.202000
     28 C37         -4.4130     0.7330    -1.5210 ca         1 2S0      -0.093500
     29 N38         -6.9990    -1.2540     0.1720 nh         1 2S0      -0.739000
     30 C39         -8.0060    -1.3610    -0.8870 c3         1 2S0       0.232100
     31 C40         -7.2360    -1.8800     1.4750 c3         1 2S0       0.232100
     32 C31         -2.3610     7.1740    -4.0160 c3         1 2S0      -0.139100
     33 O30         -4.0560     7.3940    -2.3940 o          1 2S0      -0.543000
     34 O17         -2.8810     5.5290    -2.2500 os         1 2S0      -0.418900
     35 H1          -0.3630    -0.9540     0.3640 hc         1 2S0       0.061200
     36 H2           1.8900    -0.8860    -0.5110 hc         1 2S0       0.070700
     37 H3           1.8420     0.7990     3.4100 ha         1 2S0       0.152000
     38 H4           0.1930     2.4060     4.0140 hc         1 2S0       0.059700
     39 H5          -1.3250     1.5430     3.6880 hc         1 2S0       0.059700
     40 H6          -0.2530     3.9360     2.1560 hc         1 2S0       0.050700
     41 H7          -1.6100     3.9530     3.2880 hc         1 2S0       0.050700
     42 H8          -2.9700     2.6890     1.8550 hc         1 2S0       0.074700
     43 H10         -1.5170     0.9750    -1.3780 hc         1 2S0       0.074700
     44 H11         -1.5780     3.3590    -1.8410 hc         1 2S0       0.054200
     45 H12         -3.1180     2.6630    -2.3900 hc         1 2S0       0.054200
     46 H13         -1.3210     4.5600     0.1120 hc         1 2S0       0.069700
     47 H14         -3.7870     4.9670     1.8710 hc         1 2S0       0.052200
     48 H15         -2.3250     5.9900     1.7760 hc         1 2S0       0.052200
     49 H16         -2.9830     6.9550    -0.2490 hc         1 2S0       0.072700
     50 H17         -4.6130     6.4930     0.2960 hc         1 2S0       0.072700
     51 H18         -4.9760     3.6890     0.7080 hc         1 2S0       0.060367
     52 H19         -4.0550     2.1820     0.6130 hc         1 2S0       0.060367
     53 H20         -5.0820     2.6770    -0.7390 hc         1 2S0       0.060367
     54 H21         -5.9250     5.3640    -3.5690 hc         1 2S0       0.063700
     55 H22         -4.5460     4.2580    -3.5130 hc         1 2S0       0.063700
     56 H23         -6.1440     3.7060    -2.9920 hc         1 2S0       0.063700
     57 H25         -2.9380     0.3180     1.4900 ha         1 2S0       0.134500
     58 H26         -5.0300    -0.9150     1.9060 ha         1 2S0       0.133500
     59 H27         -6.3300    -0.0370    -2.0790 ha         1 2S0       0.133500
     60 H28         -4.2350     1.1970    -2.4840 ha         1 2S0       0.134500
     61 H29         -8.3650    -0.3720    -1.1450 h1         1 2S0       0.035533
     62 H30         -8.8340    -1.9660    -0.5370 h1         1 2S0       0.035533
     63 H31         -7.5640    -1.8240    -1.7600 h1         1 2S0       0.035533
     64 H32         -8.1920    -2.3910     1.4620 h1         1 2S0       0.035533
     65 H33         -6.4480    -2.5940     1.6820 h1         1 2S0       0.035533
     66 H34         -7.2450    -1.1190     2.2460 h1         1 2S0       0.035533
     67 H35         -2.0150     6.3140    -4.5770 hc         1 2S0       0.070367
     68 H36         -2.9850     7.7910    -4.6510 hc         1 2S0       0.070367
     69 H37         -1.5100     7.7500    -3.6760 hc         1 2S0       0.070367
     70 H38         -0.3620     0.1730    -1.0060 hc         1 2S0       0.061200
     71 H39          1.8900     0.8860    -0.5110 hc         1 2S0       0.070700
     72 C30         -3.1600     6.7090    -2.8260 c          1 2S0       0.624100
@<TRIPOS>BOND
     1    16    15 1
     2    16    17 1
     3    33    72 2
     4    15    14 1
     5    22    19 2
     6    72    32 1
     7    72    34 1
     8    17    34 1
     9    17    19 1
    10    17    13 1
    11    19    20 1
    12    14    13 1
    13    14     8 1
    14     7     8 1
    15     7     6 1
    16    13    18 1
    17    13    12 1
    18     8     9 1
    19     6     5 1
    20    12    11 1
    21     5     4 2
    22     5    10 1
    23     9    10 2
    24     9    11 1
    25     4     3 1
    26    10     1 1
    27    11    23 1
    28    24    23 ar
    29    24    25 ar
    30    23    28 ar
    31     3    21 2
    32     3     2 1
    33    25    26 ar
    34     1     2 1
    35    28    27 ar
    36    26    27 ar
    37    26    29 1
    38    30    29 1
    39    29    31 1
    40     1    35 1
    41     2    36 1
    42     4    37 1
    43     6    38 1
    44     6    39 1
    45     7    40 1
    46     7    41 1
    47     8    42 1
    48    11    43 1
    49    12    44 1
    50    12    45 1
    51    14    46 1
    52    15    47 1
    53    15    48 1
    54    16    49 1
    55    16    50 1
    56    18    51 1
    57    18    52 1
    58    18    53 1
    59    20    54 1
    60    20    55 1
    61    20    56 1
    62    24    57 1
    63    25    58 1
    64    27    59 1
    65    28    60 1
    66    30    61 1
    67    30    62 1
    68    30    63 1
    69    31    64 1
    70    31    65 1
    71    31    66 1
    72    32    67 1
    73    32    68 1
    74    32    69 1
    75     1    70 1
    76     2    71 1
@<TRIPOS>SUBSTRUCTURE
     1 2S0         1 TEMP              0 ****  ****    0 ROOT
