@<TRIPOS>MOLECULE
2S2
   33    34     1     0     0
SMALL
bcc


@<TRIPOS>ATOM
      1 OAC         0.2480   -0.0750   -0.6190 o         1 2S2     -0.844800
      2 CAN         1.3430   -0.6450   -0.3530 c         1 2S2      0.920600
      3 OAB         1.8400   -1.5750   -1.0520 o         1 2S2     -0.844800
      4 CAR         2.0830   -0.1770    0.9350 c3        1 2S2     -0.129500
      5 CAL         1.7930   -1.1710    2.0550 c3        1 2S2     -0.050400
      6 CAK         0.3540   -1.0620    2.5140 c3        1 2S2     -0.087400
      7 CAJ        -0.0140   -2.1880    3.4560 c3        1 2S2     -0.077400
      8 CAI        -1.4350   -2.0630    3.9420 c3        1 2S2     -0.088100
      9 CAO         3.5340   -0.0190    0.7350 cc        1 2S2     -0.089400
     10 CAQ         4.4100    0.9070    1.4340 ca        1 2S2     -0.079800
     11 CAG         4.2210    1.8580    2.4330 ca        1 2S2     -0.084000
     12 CAE         5.3080    2.6020    2.8770 ca        1 2S2     -0.178000
     13 CAD         6.5890    2.4090    2.3400 ca        1 2S2     -0.138000
     14 CAF         6.8250    1.4680    1.3450 ca        1 2S2     -0.158000
     15 CAP         5.7400    0.7120    0.8860 ca        1 2S2     -0.065200
     16 NM          5.6770   -0.3280   -0.0490 na        1 2S2     -0.205400
     17 CAH         4.3290   -0.7170   -0.1710 cd        1 2S2     -0.094100
     18 HAR         1.6550    0.8240    1.2210 hc        1 2S2      0.047700
     19 HAL         1.9960   -2.2070    1.6770 hc        1 2S2      0.027700
     20 HALA        2.4790   -0.9840    2.9220 hc        1 2S2      0.027700
     21 HAK        -0.3160   -1.0750    1.6090 hc        1 2S2      0.054700
     22 HAKA        0.1950   -0.0780    3.0270 hc        1 2S2      0.054700
     23 HAJ         0.1180   -3.1700    2.9290 hc        1 2S2      0.028700
     24 HAJA        0.6850   -2.1890    4.3330 hc        1 2S2      0.028700
     25 HAI        -2.1440   -2.0720    3.0790 hc        1 2S2      0.022367
     26 HAIA       -1.5780   -1.1070    4.5000 hc        1 2S2      0.022367
     27 HAIB       -1.6940   -2.9110    4.6220 hc        1 2S2      0.022367
     28 HAG         3.2170    2.0120    2.8560 ha        1 2S2      0.133000
     29 HAE         5.1660    3.3570    3.6630 ha        1 2S2      0.110000
     30 HAD         7.4250    3.0180    2.7130 ha        1 2S2      0.107000
     31 HAF         7.8310    1.3230    0.9320 ha        1 2S2      0.113000
     32 HAH         3.9960   -1.4800   -0.8890 h4        1 2S2      0.220000
     33 HNM         6.3470   -0.4550   -0.7590 hn        1 2S2      0.272700
@<TRIPOS>BOND
     1    1    2 1   
     2    2    3 1   
     3    2    4 1   
     4    4    5 1   
     5    4    9 1   
     6    4   18 1   
     7    5    6 1   
     8    5   19 1   
     9    5   20 1   
    10    6    7 1   
    11    6   21 1   
    12    6   22 1   
    13    7    8 1   
    14    7   23 1   
    15    7   24 1   
    16    8   25 1   
    17    8   26 1   
    18    8   27 1   
    19    9   10 1   
    20    9   17 2   
    21   10   11 ar  
    22   10   15 ar  
    23   11   12 ar  
    24   11   28 1   
    25   12   13 ar  
    26   12   29 1   
    27   13   14 ar  
    28   13   30 1   
    29   14   15 ar  
    30   14   31 1   
    31   15   16 1   
    32   16   17 1   
    33   16   33 1   
    34   17   32 1   
@<TRIPOS>SUBSTRUCTURE
     1 2S2         1 TEMP              0 ****  ****    0 ROOT
