@<TRIPOS>MOLECULE
molecule
   33    34     1     0     0
SMALL
bcc


@<TRIPOS>ATOM
      1 OAC          0.0000     0.0000     0.0000 o          1 2S2      -0.844800
      2 CAN          1.3430     0.0000     0.0000 c          1 2S2       0.896600
      3 OAB          1.9470    -0.0000    -1.0460 o          1 2S2      -0.844800
      4 CAR          2.0960     0.0000     1.3060 c3         1 2S2      -0.108500
      5 CAL          1.7260    -1.2490     2.1080 c3         1 2S2      -0.046400
      6 CAK          0.2460    -1.1870     2.4940 c3         1 2S2      -0.096400
      7 CAJ         -0.1240    -2.4370     3.2960 c3         1 2S2      -0.085400
      8 CAI         -1.6030    -2.3740     3.6830 c3         1 2S2      -0.088100
      9 CAO          3.5770    -0.0010     1.0300 cc         1 2S2      -0.083400
     10 CAQ          4.5420     1.0190     1.4510 ca         1 2S2      -0.089800
     11 CAG          4.4420     2.2110     2.1690 ca         1 2S2      -0.068000
     12 CAE          5.5610     2.9590     2.4010 ca         1 2S2      -0.182000
     13 CAD          6.7980     2.5420     1.9270 ca         1 2S2      -0.130000
     14 CAF          6.9190     1.3700     1.2160 ca         1 2S2      -0.156000
     15 CAP          5.7930     0.5930     0.9680 ca         1 2S2      -0.048200
     16 NM           5.5890    -0.5980     0.3070 na         1 2S2      -0.194400
     17 CAH          4.2650    -0.9380     0.3600 cd         1 2S2      -0.089100
     18 HAR          1.8350     0.8850     1.8740 hc         1 2S2       0.050700
     19 HAL          2.3310    -1.2950     3.0060 hc         1 2S2       0.017200
     20 HALA         1.9050    -2.1320     1.5060 hc         1 2S2       0.017200
     21 HAK          0.0660    -0.3050     3.0960 hc         1 2S2       0.075200
     22 HAKA        -0.3590    -1.1420     1.5970 hc         1 2S2       0.075200
     23 HAJ          0.4820    -2.4820     4.1930 hc         1 2S2       0.022700
     24 HAJA         0.0550    -3.3190     2.6940 hc         1 2S2       0.022700
     25 HAI         -1.7690    -1.5310     4.3420 hc         1 2S2       0.023367
     26 HAIA        -1.8830    -3.2900     4.1900 hc         1 2S2       0.023367
     27 HAIB        -2.2050    -2.2580     2.7900 hc         1 2S2       0.023367
     28 HAG          3.4800     2.5420     2.5420 ha         1 2S2       0.130000
     29 HAE          5.4830     3.8840     2.9590 ha         1 2S2       0.111000
     30 HAD          7.6770     3.1460     2.1190 ha         1 2S2       0.108000
     31 HAF          7.8890     1.0540     0.8510 ha         1 2S2       0.106000
     32 HAH          3.8350    -1.8320    -0.0760 h4         1 2S2       0.176000
     33 HNM          6.3040    -1.1380    -0.1390 hn         1 2S2       0.277700
@<TRIPOS>BOND
     1     2     1 1   
     2     3     2 1   
     3     4     2 1   
     4     5     4 1   
     5     4     9 1   
     6     4    18 1   
     7     6     5 1   
     8     5    19 1   
     9     5    20 1   
    10     7     6 1   
    11     6    21 1   
    12     6    22 1   
    13     8     7 1   
    14     7    23 1   
    15     7    24 1   
    16     8    25 1   
    17     8    26 1   
    18     8    27 1   
    19    17     9 2   
    20     9    10 1   
    21    15    10 ar  
    22    10    11 ar  
    23    11    12 ar  
    24    11    28 1   
    25    13    12 ar  
    26    12    29 1   
    27    14    13 ar  
    28    13    30 1   
    29    15    14 ar  
    30    14    31 1   
    31    16    15 1   
    32    17    16 1   
    33    17    32 1   
    34    16    33 1   
@<TRIPOS>SUBSTRUCTURE
     1 2S2         1 TEMP              0 ****  ****    0 ROOT
