@<TRIPOS>MOLECULE
2S3
   30    31     1     0     0
SMALL
bcc


@<TRIPOS>ATOM
      1 OAC         1.0970   -0.5440   -1.0550 o         1 2S3     -0.845300
      2 CAM         1.6110    0.4330   -0.4420 c         1 2S3      0.920600
      3 OAB         1.8680    1.5470   -0.9840 o         1 2S3     -0.845300
      4 CAQ         1.9660    0.2130    1.0580 c3        1 2S3     -0.129500
      5 CAK         3.4580   -0.0850    1.1690 c3        1 2S3     -0.050400
      6 CAJ         3.7800   -1.4550    0.6080 c3        1 2S3     -0.090400
      7 CAI         5.2660   -1.6790    0.5030 c3        1 2S3     -0.084100
      8 CAN         1.5930    1.3560    1.9080 cc        1 2S3     -0.089400
      9 CAP         1.2140    1.3070    3.3110 ca        1 2S3     -0.079800
     10 CAG         1.0900    0.2850    4.2480 ca        1 2S3     -0.084000
     11 CAE         0.6800    0.5960    5.5400 ca        1 2S3     -0.178000
     12 CAD         0.3930    1.9170    5.9140 ca        1 2S3     -0.138000
     13 CAF         0.5070    2.9680    5.0130 ca        1 2S3     -0.158000
     14 CAO         0.9180    2.6710    3.7080 ca        1 2S3     -0.065200
     15 NL          1.1730    3.5070    2.6140 na        1 2S3     -0.205400
     16 CAH         1.5220    2.6910    1.5200 cd        1 2S3     -0.094100
     17 HAQ         1.3910   -0.6910    1.4080 hc        1 2S3      0.047700
     18 HAK         3.7820   -0.0330    2.2410 hc        1 2S3      0.027700
     19 HAKA        4.0240    0.7000    0.6030 hc        1 2S3      0.027700
     20 HAJ         3.3270   -2.2440    1.2640 hc        1 2S3      0.053700
     21 HAJA        3.2970   -1.5500   -0.4040 hc        1 2S3      0.053700
     22 HAI         5.4810   -2.7010    0.1080 hc        1 2S3      0.016700
     23 HAIA        5.7270   -0.9320   -0.1880 hc        1 2S3      0.016700
     24 HAIB        5.7550   -1.5770    1.5020 hc        1 2S3      0.016700
     25 HAG         1.3140   -0.7520    3.9580 ha        1 2S3      0.133000
     26 HAE         0.5770   -0.2050    6.2850 ha        1 2S3      0.110000
     27 HAD         0.0670    2.1240    6.9440 ha        1 2S3      0.107000
     28 HAF         0.2820    3.9980    5.3150 ha        1 2S3      0.113000
     29 HNL         0.7790    4.4050    2.5200 hn        1 2S3      0.271700
     30 HAH         1.7130    3.0980    0.5170 h4        1 2S3      0.220000
@<TRIPOS>BOND
     1    1    2 1   
     2    2    3 1   
     3    2    4 1   
     4    4    5 1   
     5    4    8 1   
     6    4   17 1   
     7    5    6 1   
     8    5   18 1   
     9    5   19 1   
    10    6    7 1   
    11    6   20 1   
    12    6   21 1   
    13    7   22 1   
    14    7   23 1   
    15    7   24 1   
    16    8    9 1   
    17    8   16 2   
    18    9   10 ar  
    19    9   14 ar  
    20   10   11 ar  
    21   10   25 1   
    22   11   12 ar  
    23   11   26 1   
    24   12   13 ar  
    25   12   27 1   
    26   13   14 ar  
    27   13   28 1   
    28   14   15 1   
    29   15   16 1   
    30   15   29 1   
    31   16   30 1   
@<TRIPOS>SUBSTRUCTURE
     1 2S3         1 TEMP              0 ****  ****    0 ROOT
