@<TRIPOS>MOLECULE
molecule
   30    31     1     0     0
SMALL
bcc


@<TRIPOS>ATOM
      1 OAC          0.0000     0.0000     0.0000 o          1 2S3      -0.844800
      2 CAM          1.3430     0.0000     0.0000 c          1 2S3       0.894600
      3 OAB          1.9470    -0.0000    -1.0470 o          1 2S3      -0.844800
      4 CAQ          2.0970     0.0000     1.3050 c3         1 2S3      -0.109500
      5 CAK          3.6000    -0.0000     1.0250 c3         1 2S3      -0.050400
      6 CAJ          3.9900    -1.3070     0.3340 c3         1 2S3      -0.087400
      7 CAI          5.4940    -1.3080     0.0540 c3         1 2S3      -0.090100
      8 CAN          1.7320     1.2310     2.0950 cc         1 2S3      -0.062400
      9 CAP          1.1190     1.2630     3.4250 ca         1 2S3      -0.068800
     10 CAG          0.7040     0.2810     4.3260 ca         1 2S3      -0.051000
     11 CAE          0.1550     0.6460     5.5230 ca         1 2S3      -0.202000
     12 CAD          0.0040     1.9880     5.8490 ca         1 2S3      -0.140000
     13 CAF          0.4060     2.9730     4.9740 ca         1 2S3      -0.162000
     14 CAO          0.9690     2.6230     3.7510 ca         1 2S3      -0.034200
     15 NL           1.4580     3.3520     2.6900 na         1 2S3      -0.194400
     16 CAH          1.9140     2.5060     1.7150 cd         1 2S3      -0.119100
     17 HAQ          1.8350    -0.8840     1.8730 hc         1 2S3       0.051700
     18 HAK          4.1410     0.0900     1.9600 hc         1 2S3       0.023200
     19 HAKA         3.8480     0.8360     0.3830 hc         1 2S3       0.023200
     20 HAJ          3.4490    -1.3970    -0.6000 hc         1 2S3       0.058200
     21 HAJA         3.7430    -2.1440     0.9770 hc         1 2S3       0.058200
     22 HAI          6.0360    -1.2190     0.9880 hc         1 2S3       0.016033
     23 HAIA         5.7700    -2.2330    -0.4370 hc         1 2S3       0.016033
     24 HAIB         5.7420    -0.4710    -0.5880 hc         1 2S3       0.016033
     25 HAG          0.6880    -0.8020     4.3240 ha         1 2S3       0.130000
     26 HAE         -0.1970    -0.0500     6.2750 ha         1 2S3       0.109000
     27 HAD         -0.4390     2.2480     6.8030 ha         1 2S3       0.106000
     28 HAF          0.2320     3.9750     5.3470 ha         1 2S3       0.108000
     29 HNL          1.4840     4.3510     2.6420 hn         1 2S3       0.278700
     30 HAH          2.3550     2.8180     0.7770 h4         1 2S3       0.174000
@<TRIPOS>BOND
     1     1     2 1   
     2     2     3 1   
     3     2     4 1   
     4     4     5 1   
     5     4     8 1   
     6     4    17 1   
     7     5     6 1   
     8     5    18 1   
     9     5    19 1   
    10     6     7 1   
    11     6    20 1   
    12     6    21 1   
    13     7    22 1   
    14     7    23 1   
    15     7    24 1   
    16     8     9 1   
    17     8    16 2   
    18     9    10 ar  
    19     9    14 ar  
    20    10    11 ar  
    21    10    25 1   
    22    11    12 ar  
    23    11    26 1   
    24    12    13 ar  
    25    12    27 1   
    26    13    14 ar  
    27    13    28 1   
    28    14    15 1   
    29    15    16 1   
    30    15    29 1   
    31    16    30 1   
@<TRIPOS>SUBSTRUCTURE
     1 2S3         1 TEMP              0 ****  ****    0 ROOT
