@<TRIPOS>MOLECULE
2S4
   48    49     1     0     0
SMALL
bcc


@<TRIPOS>ATOM
      1 C1           0.0000     0.0000     0.0000 ca         1 2S4      -0.160000
      2 C2           1.3820     0.0000     0.0000 ca         1 2S4      -0.077300
      3 C3          -0.6930    -0.0010     1.1990 ca         1 2S4       0.122100
      4 C8          -2.7030     0.0120    -0.0710 c3         1 2S4       0.240700
      5 C10          0.1130    -0.0040     4.7780 c3         1 2S4       0.241700
      6 C11          2.1350     0.0010    -1.3050 c3         1 2S4      -0.034100
      7 C12          2.3850     1.4230    -1.7400 c          1 2S4       0.571100
      8 C14          3.2760     2.9730    -3.2860 c2         1 2S4       0.362800
      9 C19          4.9460     4.6090    -6.1840 ca         1 2S4      -0.131300
     10 C20          7.0180     4.6000    -7.3830 ca         1 2S4      -0.106000
     11 C21          6.3260     4.6020    -8.5790 ca         1 2S4      -0.083300
     12 C22          6.3280     4.6040    -6.1860 ca         1 2S4      -0.081000
     13 C24          4.2540     4.6110    -7.3800 ca         1 2S4      -0.081000
     14 O15          1.9920     2.3440    -1.0560 o          1 2S4      -0.608100
     15 C4           2.0760     0.0000     1.1950 ca         1 2S4      -0.081000
     16 C6           1.3910    -0.0010     2.3970 ca         1 2S4      -0.174000
     17 C5           0.0060    -0.0080     2.4030 ca         1 2S4       0.123100
     18 O9          -0.6700    -0.0090     3.5830 os         1 2S4      -0.292900
     19 O7          -2.0530     0.0050     1.2010 os         1 2S4      -0.292900
     20 N13          3.0460     1.6700    -2.8870 ns         1 2S4      -0.083400
     21 N17          2.8540     3.9630    -2.5510 n2         1 2S4      -0.847100
     22 N16          3.9500     3.2260    -4.4570 nu         1 2S4      -0.499200
     23 C18          4.1940     4.6080    -4.8780 c3         1 2S4       0.250100
     24 C23          4.9440     4.6050    -8.5780 ca         1 2S4      -0.106000
     25 C25          7.0790     4.5990    -9.8860 c3         1 2S4       0.063200
     26 H1          -0.5410     0.0050    -0.9380 ha         1 2S4       0.121000
     27 H2          -2.4250     0.9080    -0.6140 h1         1 2S4      -0.003633
     28 H3          -2.4000    -0.8610    -0.6370 h1         1 2S4      -0.003633
     29 H4          -3.7760    -0.0050     0.0720 h1         1 2S4      -0.003633
     30 H5           0.7360     0.8820     4.7980 h1         1 2S4      -0.003300
     31 H6           0.7400    -0.8870     4.8030 h1         1 2S4      -0.003300
     32 H7          -0.5440    -0.0030     5.6400 h1         1 2S4      -0.003300
     33 H8           3.0820    -0.5090    -1.1770 hc         1 2S4       0.031700
     34 H9           1.5490    -0.5090    -2.0600 hc         1 2S4       0.031700
     35 H10          8.1020     4.5960    -7.3840 ha         1 2S4       0.107000
     36 H11          6.8710     4.6020    -5.2480 ha         1 2S4       0.108000
     37 H12          3.1700     4.6140    -7.3790 ha         1 2S4       0.108000
     38 H13          3.1600     0.0030     1.1910 ha         1 2S4       0.103000
     39 H14          1.9370    -0.0040     3.3320 ha         1 2S4       0.122000
     40 H15          3.3720     0.9100    -3.4510 hn         1 2S4       0.162500
     41 H16          2.3630     3.7790    -1.6990 hn         1 2S4       0.417400
     42 H17          4.2750     2.4660    -5.0210 hn         1 2S4       0.282800
     43 H18          4.7810     5.1170    -4.1240 h1         1 2S4       0.028700
     44 H19          3.2480     5.1190    -5.0060 h1         1 2S4       0.028700
     45 H20          4.4010     4.6070    -9.5150 ha         1 2S4       0.107000
     46 H21          7.4910     3.6130   -10.0630 hc         1 2S4       0.008033
     47 H22          6.4030     4.8580   -10.6920 hc         1 2S4       0.008033
     48 H23          7.8820     5.3240    -9.8410 hc         1 2S4       0.008033
@<TRIPOS>BOND
     1     1     2 ar  
     2     1     3 ar  
     3     1    26 1   
     4     2     6 1   
     5     2    15 ar  
     6     3    17 ar  
     7     3    19 1   
     8     4    19 1   
     9     4    27 1   
    10     4    28 1   
    11     4    29 1   
    12     5    18 1   
    13     5    30 1   
    14     5    31 1   
    15     5    32 1   
    16     6     7 1   
    17     6    33 1   
    18     6    34 1   
    19     7    14 2   
    20     7    20 1   
    21     8    20 1   
    22     8    21 2   
    23     8    22 1   
    24     9    12 ar  
    25     9    13 ar  
    26     9    23 1   
    27    10    11 ar  
    28    10    12 ar  
    29    10    35 1   
    30    11    24 ar  
    31    11    25 1   
    32    12    36 1   
    33    13    24 ar  
    34    13    37 1   
    35    15    16 ar  
    36    15    38 1   
    37    16    17 ar  
    38    16    39 1   
    39    17    18 1   
    40    20    40 1   
    41    21    41 1   
    42    22    23 1   
    43    22    42 1   
    44    23    43 1   
    45    23    44 1   
    46    24    45 1   
    47    25    46 1   
    48    25    47 1   
    49    25    48 1   
@<TRIPOS>SUBSTRUCTURE
     1 2S4         1 TEMP              0 ****  ****    0 ROOT
