@<TRIPOS>MOLECULE
molecule
   48    49     1     0     0
SMALL
bcc


@<TRIPOS>ATOM
      1 C1           0.0000     0.0000     0.0000 ca         1 2S4      -0.170000
      2 C2           1.3820     0.0000     0.0000 ca         1 2S4      -0.070300
      3 C3          -0.6930    -0.0010     1.1990 ca         1 2S4       0.118100
      4 C8          -2.7030     0.0120    -0.0710 c3         1 2S4       0.127700
      5 C10          0.1130    -0.0040     4.7780 c3         1 2S4       0.127700
      6 C11          2.1350     0.0010    -1.3050 c3         1 2S4      -0.103100
      7 C12          2.3850     1.4230    -1.7400 c          1 2S4       0.644100
      8 C14          3.2760     2.9730    -3.2860 c2         1 2S4       0.679800
      9 C19          4.9460     4.6090    -6.1840 ca         1 2S4      -0.122300
     10 C20          7.0180     4.6000    -7.3830 ca         1 2S4      -0.131500
     11 C21          6.3260     4.6020    -8.5790 ca         1 2S4      -0.072300
     12 C22          6.3280     4.6040    -6.1860 ca         1 2S4      -0.107000
     13 C24          4.2540     4.6110    -7.3800 ca         1 2S4      -0.107000
     14 O15          1.9920     2.3440    -1.0560 o          1 2S4      -0.494100
     15 C4           2.0760     0.0000     1.1950 ca         1 2S4      -0.107000
     16 C6           1.3910    -0.0010     2.3970 ca         1 2S4      -0.187000
     17 C5           0.0060    -0.0080     2.4030 ca         1 2S4       0.121100
     18 O9          -0.6700    -0.0090     3.5830 os         1 2S4      -0.313900
     19 O7          -2.0530     0.0050     1.2010 os         1 2S4      -0.313900
     20 N13          3.0460     1.6700    -2.8870 ns         1 2S4      -0.491400
     21 N17          2.8540     3.9630    -2.5510 n2         1 2S4      -0.877100
     22 N16          3.9500     3.2260    -4.4570 nu         1 2S4      -0.945200
     23 C18          4.1940     4.6080    -4.8780 c3         1 2S4       0.293100
     24 C23          4.9440     4.6050    -8.5780 ca         1 2S4      -0.131500
     25 C25          7.0790     4.5990    -9.8860 c3         1 2S4      -0.049800
     26 H1          -0.5410     0.0050    -0.9380 ha         1 2S4       0.139000
     27 H2          -2.3980    -0.8600    -0.6380 h1         1 2S4       0.040033
     28 H3          -3.7760    -0.0080     0.0720 h1         1 2S4       0.040033
     29 H4          -2.4270     0.9090    -0.6130 h1         1 2S4       0.040033
     30 H5           0.7390    -0.8880     4.8040 h1         1 2S4       0.040033
     31 H6           0.7370     0.8810     4.7970 h1         1 2S4       0.040033
     32 H7          -0.5440    -0.0010     5.6400 h1         1 2S4       0.040033
     33 H8           1.5490    -0.5090    -2.0600 hc         1 2S4       0.062700
     34 H9           3.0820    -0.5090    -1.1770 hc         1 2S4       0.062700
     35 H10          8.1020     4.5960    -7.3840 ha         1 2S4       0.134000
     36 H11          6.8710     4.6020    -5.2480 ha         1 2S4       0.135500
     37 H12          3.1700     4.6140    -7.3790 ha         1 2S4       0.135500
     38 H13          3.1600     0.0030     1.1910 ha         1 2S4       0.130000
     39 H14          1.9370    -0.0040     3.3320 ha         1 2S4       0.140000
     40 H15          3.3720     0.9100    -3.4510 hn         1 2S4       0.316500
     41 H16          3.0200     4.9060    -2.8400 hn         1 2S4       0.397400
     42 H17          4.2720     2.4660    -5.0220 hn         1 2S4       0.424800
     43 H18          3.2480     5.1190    -5.0060 h1         1 2S4       0.048200
     44 H19          4.7810     5.1170    -4.1240 h1         1 2S4       0.048200
     45 H20          4.4010     4.6070    -9.5150 ha         1 2S4       0.134000
     46 H21          8.1170     4.8510    -9.7050 hc         1 2S4       0.045700
     47 H22          6.6410     5.3290   -10.5560 hc         1 2S4       0.045700
     48 H23          7.0190     3.6150   -10.3350 hc         1 2S4       0.045700
@<TRIPOS>BOND
     1    15    16 ar
     2    15     2 ar
     3     6     2 1
     4     6     7 1
     5    16    17 ar
     6     2     1 ar
     7    17    18 1
     8    17     3 ar
     9     1     3 ar
    10    18     5 1
    11     3    19 1
    12    20     7 1
    13    20     8 1
    14     7    14 2
    15    19     4 1
    16    21     8 2
    17     8    22 1
    18    22    23 1
    19    12    10 ar
    20    12     9 ar
    21    10    11 ar
    22    23     9 1
    23     9    13 ar
    24    11    25 1
    25    11    24 ar
    26    13    24 ar
    27     1    26 1
    28     4    27 1
    29     4    28 1
    30     4    29 1
    31     5    30 1
    32     5    31 1
    33     5    32 1
    34     6    33 1
    35     6    34 1
    36    10    35 1
    37    12    36 1
    38    13    37 1
    39    15    38 1
    40    16    39 1
    41    20    40 1
    42    21    41 1
    43    22    42 1
    44    23    43 1
    45    23    44 1
    46    24    45 1
    47    25    46 1
    48    25    47 1
    49    25    48 1
@<TRIPOS>SUBSTRUCTURE
     1 2S4         1 TEMP              0 ****  ****    0 ROOT
