@<TRIPOS>MOLECULE
molecule
   65    68     1     0     0
SMALL
bcc


@<TRIPOS>ATOM
      1 CAK          0.0000     0.0000     0.0000 ca         1 2S6      -0.198000
      2 CAI          1.3770     0.0000     0.0000 ca         1 2S6      -0.051000
      3 CAY          2.0750     0.0000     1.2110 ca         1 2S6      -0.066000
      4 CAC          3.5060     0.0020     1.2160 cg         1 2S6       0.244800
      5 NAA          4.6420    -0.0170     1.2170 n1         1 2S6      -0.371800
      6 CAJ          1.3700     0.0000     2.4180 ca         1 2S6      -0.051000
      7 CAL         -0.0070    -0.0000     2.4100 ca         1 2S6      -0.198000
      8 CAZ         -0.6970    -0.0000     1.2030 ca         1 2S6       0.169100
      9 OAX         -2.0550     0.0060     1.1990 os         1 2S6      -0.322900
     10 CAP         -2.7070     0.0050     2.4710 c3         1 2S6       0.134400
     11 CAO         -4.2230     0.0120     2.2650 c3         1 2S6      -0.083400
     12 CAU         -4.9210     0.0120     3.6270 c3         1 2S6       0.164800
     13 NBD         -6.3780     0.0180     3.4300 n3         1 2S6      -0.724600
     14 CAW         -6.8290    -1.2290     2.8000 c3         1 2S6       0.163300
     15 CAT         -8.3210    -1.1280     2.4790 c3         1 2S6      -0.074900
     16 CAV         -7.0780     0.2560     4.6990 c3         1 2S6       0.163300
     17 CAS         -8.5790     0.4010     4.4330 c3         1 2S6      -0.074900
     18 CBC         -9.1020    -0.8780     3.7720 c3         1 2S6      -0.075700
     19 CBE        -10.5880    -0.7150     3.4490 c3         1 2S6       0.212100
     20 CBB        -11.3660    -0.4640     4.7430 c3         1 2S6      -0.106700
     21 CAQ        -11.2110    -1.6580     5.7170 c3         1 2S6      -0.085900
     22 CAM        -12.4550    -1.5700     6.6250 c3         1 2S6      -0.081900
     23 CAN        -13.5240    -0.7970     5.8320 c3         1 2S6      -0.081900
     24 CAR        -12.8910    -0.4410     4.4700 c3         1 2S6      -0.085900
     25 OAB        -10.7650     0.3930     2.5640 oh         1 2S6      -0.595800
     26 CBA        -11.0990    -1.9710     2.7920 ca         1 2S6      -0.081300
     27 CAG        -10.5970    -3.2020     3.1680 ca         1 2S6      -0.117000
     28 CAE        -11.0660    -4.3540     2.5650 ca         1 2S6      -0.131500
     29 CAD        -12.0360    -4.2750     1.5830 ca         1 2S6      -0.127000
     30 CAF        -12.5380    -3.0430     1.2060 ca         1 2S6      -0.131500
     31 CAH        -12.0730    -1.8910     1.8140 ca         1 2S6      -0.117000
     32 H1          -0.5410    -0.0000    -0.9390 ha         1 2S6       0.147000
     33 H2           1.9190     0.0000    -0.9380 ha         1 2S6       0.144000
     34 H3           1.9070     0.0000     3.3590 ha         1 2S6       0.144000
     35 H4          -0.5540    -0.0000     3.3450 ha         1 2S6       0.147000
     36 H5          -2.4130     0.8870     3.0280 h1         1 2S6       0.036700
     37 H6          -2.4210    -0.8820     3.0230 h1         1 2S6       0.036700
     38 H7          -4.5090     0.8990     1.7130 hc         1 2S6       0.066700
     39 H8          -4.5160    -0.8700     1.7080 hc         1 2S6       0.066700
     40 H9          -4.6350    -0.8760     4.1800 h1         1 2S6       0.032700
     41 H10         -4.6280     0.8940     4.1840 h1         1 2S6       0.032700
     42 H12         -6.2740    -1.3900     1.8830 h1         1 2S6       0.032450
     43 H13         -6.6620    -2.0560     3.4790 h1         1 2S6       0.032450
     44 H14         -8.6560    -2.0550     2.0290 hc         1 2S6       0.058700
     45 H15         -8.4880    -0.3070     1.7920 hc         1 2S6       0.058700
     46 H16         -6.9090    -0.5800     5.3660 h1         1 2S6       0.032450
     47 H17         -6.7040     1.1670     5.1510 h1         1 2S6       0.032450
     48 H18         -9.0970     0.5590     5.3720 hc         1 2S6       0.058700
     49 H19         -8.7490     1.2430     3.7740 hc         1 2S6       0.058700
     50 H20         -8.9620    -1.7150     4.4450 hc         1 2S6       0.053700
     51 H21        -11.0490     0.4570     5.2160 hc         1 2S6       0.063700
     52 H22        -11.2080    -2.5930     5.1700 hc         1 2S6       0.052200
     53 H23        -10.3070    -1.5510     6.3040 hc         1 2S6       0.052200
     54 H24        -12.8150    -2.5650     6.8560 hc         1 2S6       0.042950
     55 H25        -12.2110    -1.0360     7.5350 hc         1 2S6       0.042950
     56 H26        -13.7940     0.1090     6.3620 hc         1 2S6       0.042950
     57 H27        -14.3970    -1.4210     5.6820 hc         1 2S6       0.042950
     58 H28        -13.2030     0.5470     4.1550 hc         1 2S6       0.052200
     59 H29        -13.1530    -1.1840     3.7260 hc         1 2S6       0.052200
     60 H30        -11.2290     1.0810     3.0110 ho         1 2S6       0.404000
     61 H31         -9.8370    -3.2650     3.9370 ha         1 2S6       0.138500
     62 H32        -10.6720    -5.3190     2.8600 ha         1 2S6       0.129500
     63 H33        -12.4010    -5.1770     1.1090 ha         1 2S6       0.129000
     64 H34        -13.3000    -2.9810     0.4380 ha         1 2S6       0.129500
     65 H35        -12.4670    -0.9260     1.5180 ha         1 2S6       0.138500
@<TRIPOS>BOND
     1     5     4 3
     2     4     3 1
     3     3     2 ar
     4     3     6 ar
     5     2     1 ar
     6     6     7 ar
     7    30    29 ar
     8    30    31 ar
     9    29    28 ar
    10     1     8 ar
    11     7     8 ar
    12     8     9 1
    13    14    15 1
    14    14    13 1
    15     9    10 1
    16    31    26 ar
    17    28    27 ar
    18    12    13 1
    19    12    11 1
    20    10    11 1
    21    15    18 1
    22    13    16 1
    23    26    27 ar
    24    26    19 1
    25    18    19 1
    26    18    17 1
    27    16    17 1
    28    19    25 1
    29    19    20 1
    30    21    20 1
    31    21    22 1
    32    20    24 1
    33    24    23 1
    34    22    23 1
    35     1    32 1
    36     2    33 1
    37     6    34 1
    38     7    35 1
    39    10    36 1
    40    10    37 1
    41    11    38 1
    42    11    39 1
    43    12    40 1
    44    12    41 1
    45    14    42 1
    46    14    43 1
    47    15    44 1
    48    15    45 1
    49    16    46 1
    50    16    47 1
    51    17    48 1
    52    17    49 1
    53    18    50 1
    54    20    51 1
    55    21    52 1
    56    21    53 1
    57    22    54 1
    58    22    55 1
    59    23    56 1
    60    23    57 1
    61    24    58 1
    62    24    59 1
    63    25    60 1
    64    27    61 1
    65    28    62 1
    66    29    63 1
    67    30    64 1
    68    31    65 1
@<TRIPOS>SUBSTRUCTURE
     1 2S6         1 TEMP              0 ****  ****    0 ROOT
