@<TRIPOS>MOLECULE
molecule
   64    67     1     0     0
SMALL
bcc


@<TRIPOS>ATOM
      1 CAJ          0.0000     0.0000     0.0000 ca         1 2S7      -0.198000
      2 CAH          1.3780     0.0000     0.0000 ca         1 2S7      -0.051000
      3 CAY          2.0750     0.0000     1.2110 ca         1 2S7      -0.066000
      4 CAC          3.5070     0.0000     1.2150 cg         1 2S7       0.244800
      5 NAA          4.6430    -0.0030     1.2380 n1         1 2S7      -0.371800
      6 CAI          1.3700    -0.0020     2.4180 ca         1 2S7      -0.051000
      7 CAK         -0.0070    -0.0020     2.4090 ca         1 2S7      -0.198000
      8 CAZ         -0.6960    -0.0020     1.2030 ca         1 2S7       0.169100
      9 OAX         -2.0540     0.0030     1.1990 os         1 2S7      -0.323900
     10 CAO         -2.7060     0.0010     2.4710 c3         1 2S7       0.134400
     11 CAN         -4.2220     0.0060     2.2660 c3         1 2S7      -0.084400
     12 CAT         -4.9200     0.0050     3.6280 c3         1 2S7       0.165800
     13 NBD         -6.3760     0.0100     3.4310 n3         1 2S7      -0.727600
     14 CAV         -7.0770     0.2470     4.6990 c3         1 2S7       0.162800
     15 CAS         -8.5780     0.3910     4.4350 c3         1 2S7      -0.077400
     16 CAU         -6.8270    -1.2370     2.8000 c3         1 2S7       0.162800
     17 CAR         -8.3200    -1.1360     2.4780 c3         1 2S7      -0.077400
     18 CBC         -9.1000    -0.8870     3.7720 c3         1 2S7      -0.051700
     19 CBE        -10.5870    -0.7260     3.4500 c3         1 2S7       0.120500
     20 CBB        -11.3450    -0.3400     4.7210 c3         1 2S7      -0.086700
     21 CAP        -12.8650    -0.2430     4.4380 c3         1 2S7      -0.080900
     22 CAL        -13.4880    -0.4600     5.8380 c3         1 2S7      -0.081900
     23 CAM        -12.5910    -1.5330     6.4900 c3         1 2S7      -0.081900
     24 CAQ        -11.2290    -1.4570     5.7800 c3         1 2S7      -0.080900
     25 OAB        -11.1010    -1.9590     2.9440 oh         1 2S7      -0.600800
     26 CBA        -10.7610     0.3540     2.4130 ca         1 2S7       0.397600
     27 NAW        -10.7950     1.6170     2.7880 nb         1 2S7      -0.686000
     28 CAF        -10.9460     2.5960     1.9160 ca         1 2S7       0.421200
     29 CAD        -11.0760     2.3260     0.5670 ca         1 2S7      -0.253300
     30 CAE        -11.0460     1.0080     0.1350 ca         1 2S7      -0.090000
     31 CAG        -10.8790     0.0080     1.0800 ca         1 2S7      -0.250300
     32 H1          -0.5410     0.0000    -0.9380 ha         1 2S7       0.147500
     33 H2           1.9200     0.0010    -0.9380 ha         1 2S7       0.144000
     34 H3           1.9070    -0.0020     3.3590 ha         1 2S7       0.144000
     35 H4          -0.5540    -0.0030     3.3450 ha         1 2S7       0.147500
     36 H5          -2.4130     0.8840     3.0270 h1         1 2S7       0.036700
     37 H6          -2.4180    -0.8850     3.0220 h1         1 2S7       0.036700
     38 H7          -4.5090     0.8930     1.7140 hc         1 2S7       0.065200
     39 H8          -4.5140    -0.8760     1.7100 hc         1 2S7       0.065200
     40 H9          -4.6330    -0.8820     4.1790 h1         1 2S7       0.033200
     41 H10         -4.6280     0.8870     4.1840 h1         1 2S7       0.033200
     42 H12         -6.7030     1.1570     5.1530 h1         1 2S7       0.033950
     43 H13         -6.9080    -0.5910     5.3650 h1         1 2S7       0.033950
     44 H14         -9.0960     0.5480     5.3730 hc         1 2S7       0.059950
     45 H15         -8.7490     1.2340     3.7760 hc         1 2S7       0.059950
     46 H16         -6.6590    -2.0640     3.4780 h1         1 2S7       0.033950
     47 H17         -6.2710    -1.3970     1.8830 h1         1 2S7       0.033950
     48 H18         -8.6540    -2.0630     2.0280 hc         1 2S7       0.059950
     49 H19         -8.4860    -0.3140     1.7930 hc         1 2S7       0.059950
     50 H20         -8.9590    -1.7250     4.4440 hc         1 2S7       0.065700
     51 H21        -10.9760     0.5970     5.1200 hc         1 2S7       0.082700
     52 H22        -13.1770    -1.0230     3.7550 hc         1 2S7       0.046450
     53 H23        -13.1200     0.7380     4.0540 hc         1 2S7       0.046450
     54 H24        -14.5050    -0.8230     5.7470 hc         1 2S7       0.041700
     55 H25        -13.4570     0.4580     6.4130 hc         1 2S7       0.041700
     56 H26        -13.0270    -2.5150     6.3490 hc         1 2S7       0.041700
     57 H27        -12.4700    -1.3230     7.5460 hc         1 2S7       0.041700
     58 H28        -11.0100    -2.4020     5.2980 hc         1 2S7       0.046450
     59 H29        -10.4530    -1.2100     6.4940 hc         1 2S7       0.046450
     60 H30        -11.9040    -1.7970     2.4780 ho         1 2S7       0.408000
     61 H31        -10.9690     3.6220     2.2610 h4         1 2S7       0.024100
     62 H32        -11.2020     3.1330    -0.1440 ha         1 2S7       0.139000
     63 H33        -11.1430     0.7670    -0.9160 ha         1 2S7       0.139000
     64 H34        -10.8510    -1.0320     0.7790 ha         1 2S7       0.149000
@<TRIPOS>BOND
     1     5     4 3   
     2     4     3 1   
     3     3     6 ar  
     4     3     2 ar  
     5     6     7 ar  
     6    22    21 1   
     7    22    23 1   
     8     2     1 ar  
     9     7     8 ar  
    10     1     8 ar  
    11    21    20 1   
    12     8     9 1   
    13    16    17 1   
    14    16    13 1   
    15    12    13 1   
    16    12    11 1   
    17     9    10 1   
    18    23    24 1   
    19    17    18 1   
    20    10    11 1   
    21    13    14 1   
    22    20    24 1   
    23    20    19 1   
    24    18    19 1   
    25    18    15 1   
    26    14    15 1   
    27    19    26 1   
    28    19    25 1   
    29    27    26 ar  
    30    27    28 ar  
    31    26    31 ar  
    32    28    29 ar  
    33    31    30 ar  
    34    29    30 ar  
    35     1    32 1   
    36     2    33 1   
    37     6    34 1   
    38     7    35 1   
    39    10    36 1   
    40    10    37 1   
    41    11    38 1   
    42    11    39 1   
    43    12    40 1   
    44    12    41 1   
    45    14    42 1   
    46    14    43 1   
    47    15    44 1   
    48    15    45 1   
    49    16    46 1   
    50    16    47 1   
    51    17    48 1   
    52    17    49 1   
    53    18    50 1   
    54    20    51 1   
    55    21    52 1   
    56    21    53 1   
    57    22    54 1   
    58    22    55 1   
    59    23    56 1   
    60    23    57 1   
    61    24    58 1   
    62    24    59 1   
    63    25    60 1   
    64    28    61 1   
    65    29    62 1   
    66    30    63 1   
    67    31    64 1   
@<TRIPOS>SUBSTRUCTURE
     1 2S7         1 TEMP              0 ****  ****    0 ROOT
