@<TRIPOS>MOLECULE
2S8
   56    57     1     0     0
SMALL
bcc


@<TRIPOS>ATOM
      1 OAD          0.0000     0.0000     0.0000 o          1 2S8      -0.891300
      2 CAU          1.3430     0.0000     0.0000 c          1 2S8       0.985600
      3 OAF          1.9470     0.0010    -1.0460 o          1 2S8      -0.891300
      4 CAZ          2.0970     0.0000     1.3050 c3         1 2S8      -0.078500
      5 CAW          3.5780     0.0000     1.0300 cc         1 2S8      -0.064400
      6 CAK          4.2640    -0.9310     0.3480 cd         1 2S8      -0.258100
      7 NAS          5.5880    -0.5930     0.3010 na         1 2S8       0.335600
      8 CAX          5.7930     0.5930     0.9700 ca         1 2S8      -0.233200
      9 CAI          6.9200     1.3690     1.2190 ca         1 2S8      -0.119000
     10 CAG          6.8000     2.5390     1.9370 ca         1 2S8      -0.108000
     11 CAH          5.5640     2.9530     2.4140 ca         1 2S8      -0.165000
     12 CAJ          4.4430     2.2070     2.1800 ca         1 2S8      -0.029000
     13 CAY          4.5410     1.0200     1.4490 ca         1 2S8      -0.093800
     14 CAQ          1.7270    -1.2500     2.1070 c3         1 2S8       0.010600
     15 CAO          0.2480    -1.1890     2.4940 c3         1 2S8      -0.082400
     16 CAM         -0.1210    -2.4390     3.2950 c3         1 2S8      -0.026400
     17 CAL         -1.6000    -2.3770     3.6820 c3         1 2S8      -0.021400
     18 CAN         -1.9700    -3.6280     4.4840 c3         1 2S8      -0.046400
     19 CAP         -3.4490    -3.5660     4.8710 c3         1 2S8       0.056000
     20 NAR         -3.8030    -4.7630     5.6380 ns         1 2S8      -0.173900
     21 CAV         -5.0630    -4.9270     6.0890 c          1 2S8       0.678100
     22 OAE         -5.9050    -4.0820     5.8570 o          1 2S8      -0.667000
     23 OAT         -5.3880    -6.0260     6.7940 os         1 2S8      -0.424900
     24 CBA         -6.7630    -6.1370     7.2460 c3         1 2S8       0.196800
     25 CAC         -7.7000    -6.1330     6.0370 c3         1 2S8      -0.028433
     26 CAB         -6.9400    -7.4420     8.0250 c3         1 2S8      -0.028433
     27 CAA         -7.0970    -4.9520     8.1550 c3         1 2S8      -0.028433
     28 HAZ          1.8350     0.8840     1.8730 hc         1 2S8       0.027700
     29 HAK          3.8320    -1.8180    -0.1000 h4         1 2S8       0.152000
     30 HAI          7.8890     1.0550     0.8510 ha         1 2S8       0.085000
     31 HAG          7.6790     3.1420     2.1320 ha         1 2S8       0.084000
     32 HAH          5.4870     3.8760     2.9770 ha         1 2S8       0.089000
     33 HAJ          3.4820     2.5360     2.5550 ha         1 2S8       0.102000
     34 HAQ          1.9060    -2.1320     1.5040 hc         1 2S8      -0.007800
     35 HAQA         2.3330    -1.2960     3.0040 hc         1 2S8      -0.007800
     36 HAO         -0.3580    -1.1430     1.5970 hc         1 2S8       0.059200
     37 HAOA         0.0680    -0.3070     3.0960 hc         1 2S8       0.059200
     38 HAM          0.4850    -2.4850     4.1920 hc         1 2S8       0.000200
     39 HAMA         0.0580    -3.3210     2.6920 hc         1 2S8       0.000200
     40 HAL         -1.7800    -1.4950     4.2850 hc         1 2S8       0.022200
     41 HALA        -2.2070    -2.3310     2.7860 hc         1 2S8       0.022200
     42 HAN         -1.3640    -3.6740     5.3810 hc         1 2S8       0.012700
     43 HANA        -1.7910    -4.5100     3.8810 hc         1 2S8       0.012700
     44 HAP         -4.0550    -3.5200     3.9740 h1         1 2S8       0.028700
     45 HAPA        -3.6280    -2.6840     5.4740 h1         1 2S8       0.028700
     46 HNAR        -3.1090    -5.4580     5.8280 hn         1 2S8       0.173500
     47 HAC         -7.9000    -5.1110     5.7380 hc         1 2S8       0.017367
     48 HACA        -7.2330    -6.6640     5.2160 hc         1 2S8       0.017367
     49 HACB        -8.6300    -6.6220     6.3000 hc         1 2S8       0.017367
     50 HAB         -7.9660    -7.5240     8.3630 hc         1 2S8       0.017367
     51 HABA        -6.2770    -7.4440     8.8810 hc         1 2S8       0.017367
     52 HABB        -6.7030    -8.2810     7.3820 hc         1 2S8       0.017367
     53 HAA         -7.3850    -4.1010     7.5490 hc         1 2S8       0.017367
     54 HAAA        -7.9160    -5.2200     8.8120 hc         1 2S8       0.017367
     55 HAAB        -6.2280    -4.6950     8.7480 hc         1 2S8       0.017367
     56 HNAS         6.3020    -1.1290    -0.1510 hn         1 2S8       0.098700
@<TRIPOS>BOND
     1     1     2 1   
     2     2     3 1   
     3     2     4 1   
     4     4     5 1   
     5     4    14 1   
     6     4    28 1   
     7     5     6 2   
     8     5    13 1   
     9     6     7 1   
    10     6    29 1   
    11     7     8 1   
    12     7    56 1   
    13     8     9 ar  
    14     8    13 ar  
    15     9    10 ar  
    16     9    30 1   
    17    10    11 ar  
    18    10    31 1   
    19    11    12 ar  
    20    11    32 1   
    21    12    13 ar  
    22    12    33 1   
    23    14    15 1   
    24    14    34 1   
    25    14    35 1   
    26    15    16 1   
    27    15    36 1   
    28    15    37 1   
    29    16    17 1   
    30    16    38 1   
    31    16    39 1   
    32    17    18 1   
    33    17    40 1   
    34    17    41 1   
    35    18    19 1   
    36    18    42 1   
    37    18    43 1   
    38    19    20 1   
    39    19    44 1   
    40    19    45 1   
    41    20    21 1   
    42    20    46 1   
    43    21    22 2   
    44    21    23 1   
    45    23    24 1   
    46    24    25 1   
    47    24    26 1   
    48    24    27 1   
    49    25    47 1   
    50    25    48 1   
    51    25    49 1   
    52    26    50 1   
    53    26    51 1   
    54    26    52 1   
    55    27    53 1   
    56    27    54 1   
    57    27    55 1   
@<TRIPOS>SUBSTRUCTURE
     1 2S8         1 TEMP              0 ****  ****    0 ROOT
