@<TRIPOS>MOLECULE
2S9
   65    73     1     0     0
SMALL
bcc


@<TRIPOS>ATOM
      1 CAL          0.0000     0.0000     0.0000 ca         1 2S9      -0.160000
      2 CAY          1.3840     0.0000     0.0000 ca         1 2S9       0.118000
      3 FAC          2.0610     0.0020    -1.1700 f          1 2S9      -0.094000
      4 CAF          2.0750     0.0000     1.2000 ca         1 2S9      -0.149000
      5 CAE          1.3830    -0.0010     2.3960 ca         1 2S9      -0.067000
      6 CAI          0.0000    -0.0020     2.3940 ca         1 2S9      -0.143000
      7 CBB         -0.6910     0.0050     1.1960 ca         1 2S9      -0.111000
      8 CBF         -2.1970     0.0030     1.1970 c3         1 2S9       0.148000
      9 CBC         -2.7080     0.9070     0.0720 c3         1 2S9      -0.030000
     10 CAQ         -2.2720     2.3740     0.3050 c3         1 2S9      -0.467000
     11 CAM         -3.3050     3.2060    -0.4810 DU         1 2S9      -0.336000
     12 CAN         -4.5660     2.3320    -0.6110 DU         1 2S9       0.237000
     13 CAR         -4.2530     1.0010     0.1020 c3         1 2S9      -0.405000
     14 OAB         -2.6750     0.4920     2.4530 oh         1 2S9      -0.295000
     15 CBD         -2.7070    -1.4230     0.9770 c3         1 2S9      -0.127000
     16 CAT         -2.2370    -1.9290    -0.3900 c3         1 2S9      -0.131500
     17 CAW         -2.6980    -3.3760    -0.5780 c3         1 2S9      -0.075500
     18 CAS         -2.1510    -2.3390     2.0710 c3         1 2S9      -0.131500
     19 CAV         -2.6140    -3.7740     1.8100 c3         1 2S9      -0.075500
     20 NBE         -2.1390    -4.2120     0.4920 n3         1 2S9      -0.054000
     21 CAU         -2.4460    -5.6310     0.2670 c3         1 2S9      -0.393000
     22 CAO         -1.6480    -6.4880     1.2500 DU         1 2S9      -0.362000
     23 CAP         -1.9670    -7.9660     1.0160 DU         1 2S9      -0.165000
     24 OAX         -1.2210    -8.7660     1.9340 os         1 2S9      -0.172000
     25 CBA         -1.3910   -10.1110     1.8580 ca         1 2S9       0.116000
     26 CAJ         -0.6960   -10.9470     2.7230 ca         1 2S9      -0.171500
     27 CAG         -0.8650   -12.3120     2.6500 ca         1 2S9      -0.023000
     28 CAZ         -1.7370   -12.8560     1.7040 ca         1 2S9      -0.038000
     29 CAD         -1.9170   -14.2750     1.6240 c1         1 2S9      -0.102000
     30 NAA         -2.0750   -15.3970     1.5490 n1         1 2S9      -0.047000
     31 CAH         -2.4350   -12.0120     0.8360 ca         1 2S9      -0.023000
     32 CAK         -2.2640   -10.6470     0.9200 ca         1 2S9      -0.171500
     33 H1          -0.7650     0.1800    -0.7450 ha         1 2S9       0.162000
     34 H2           3.1350    -0.1310     1.3800 ha         1 2S9       0.125000
     35 H3           1.9560     0.2430     3.2820 ha         1 2S9       0.110000
     36 H4          -0.5960    -0.3290     3.2370 ha         1 2S9       0.132000
     37 H5          -2.3660     0.5570    -0.8950 hc         1 2S9       0.065000
     38 H6          -2.1850     3.0760    -0.5150 DU         1 2S9       0.190000
     39 H7          -1.3790     2.3470     0.9180 hc         1 2S9       0.165000
     40 H8          -4.1330     3.0890     0.2070 DU         1 2S9       0.103000
     41 H9          -3.1170     4.2720    -0.4720 ha         1 2S9       0.143000
     42 H10         -5.2990     3.1230    -0.7150 ha         1 2S9      -0.006500
     43 H11         -4.5180     2.2300    -1.6890 ha         1 2S9      -0.006500
     44 H12         -4.4210     0.0250     0.5410 hc         1 2S9       0.214000
     45 H13         -4.5250     1.4320    -0.8540 DU         1 2S9       0.137000
     46 H14         -1.9090     0.9510     2.7560 ho         1 2S9       0.200000
     47 H15         -3.7890    -1.4350     1.0120 hc         1 2S9       0.077000
     48 H16         -1.2070    -1.6440    -0.2120 hc         1 2S9       0.080000
     49 H17         -2.3510    -1.2340    -1.2140 hc         1 2S9       0.080000
     50 H18         -3.6940    -3.4930    -0.9860 h1         1 2S9       0.057500
     51 H19         -2.2870    -3.8410    -1.4660 h1         1 2S9       0.057500
     52 H20         -1.1850    -2.0160     1.7020 hc         1 2S9       0.080000
     53 H21         -2.3370    -1.8910     3.0390 hc         1 2S9       0.080000
     54 H22         -1.8250    -4.2330     2.3940 h1         1 2S9       0.057500
     55 H23         -3.5060    -4.3850     1.7530 h1         1 2S9       0.057500
     56 H25         -1.9450    -5.9590    -0.6360 h1         1 2S9       0.062000
     57 H26         -2.1980    -6.3840     1.0040 DU         1 2S9       0.297000
     58 H27         -2.3360    -7.2090     1.6750 DU         1 2S9       0.207000
     59 H28         -0.7470    -5.9750     1.5660 ha         1 2S9       0.168000
     60 H29         -2.9660    -8.1450     0.6340 ha         1 2S9       0.151000
     61 H30         -1.1780    -8.5900     0.6150 ha         1 2S9       0.151000
     62 H31          0.3640   -10.8800     2.9390 ha         1 2S9       0.131500
     63 H32         -0.5100   -13.0910     3.3140 ha         1 2S9       0.120500
     64 H33         -3.0470   -12.5710     0.1380 ha         1 2S9       0.120500
     65 H34         -2.6650    -9.9030     0.2420 ha         1 2S9       0.131500
@<TRIPOS>BOND
     1     1     2 1   
     2     1     7 1   
     3     1    33 1   
     4     2     3 1   
     5     2     4 1   
     6     4     5 1   
     7     4    34 1   
     8     5     6 1   
     9     5    35 1   
    10     6     7 1   
    11     6    36 1   
    12     7     8 1   
    13     8     9 1   
    14     8    14 1   
    15     8    15 1   
    16     9    10 1   
    17     9    13 1   
    18     9    37 1   
    19    10    11 1   
    20    10    38 1   
    21    10    39 1   
    22    11    12 1   
    23    11    38 1   
    24    11    40 1   
    25    11    41 1   
    26    12    13 1   
    27    12    40 1   
    28    12    42 1   
    29    12    43 1   
    30    12    45 1   
    31    13    44 1   
    32    13    45 1   
    33    14    46 1   
    34    15    16 1   
    35    15    18 1   
    36    15    47 1   
    37    16    17 1   
    38    16    48 1   
    39    16    49 1   
    40    17    20 1   
    41    17    50 1   
    42    17    51 1   
    43    18    19 1   
    44    18    52 1   
    45    18    53 1   
    46    19    20 1   
    47    19    54 1   
    48    19    55 1   
    49    20    21 1   
    50    21    22 1   
    51    21    56 1   
    52    21    57 1   
    53    22    23 1   
    54    22    57 1   
    55    22    58 1   
    56    22    59 1   
    57    23    24 1   
    58    23    58 1   
    59    23    60 1   
    60    23    61 1   
    61    24    25 1   
    62    25    26 1   
    63    25    32 1   
    64    26    27 1   
    65    26    62 1   
    66    27    28 1   
    67    27    63 1   
    68    28    29 1   
    69    28    31 1   
    70    29    30 1   
    71    31    32 1   
    72    31    64 1   
    73    32    65 1   
@<TRIPOS>SUBSTRUCTURE
     1 2S9         1 TEMP              0 ****  ****    0 ROOT
