@<TRIPOS>MOLECULE
molecule
   65    68     1     0     0
SMALL
bcc


@<TRIPOS>ATOM
      1 CAL          0.0000     0.0000     0.0000 ca         1 2S9      -0.173000
      2 CAY          1.3840     0.0000     0.0000 ca         1 2S9       0.166900
      3 FAC          2.0610     0.0020    -1.1700 f          1 2S9      -0.139900
      4 CAF          2.0750     0.0000     1.2000 ca         1 2S9      -0.178000
      5 CAE          1.3830    -0.0010     2.3960 ca         1 2S9      -0.100000
      6 CAI          0.0000    -0.0020     2.3940 ca         1 2S9      -0.165000
      7 CBB         -0.6910     0.0050     1.1960 ca         1 2S9      -0.109300
      8 CBF         -2.1970     0.0030     1.1970 c3         1 2S9       0.199100
      9 CBC         -2.7080     0.9070     0.0720 c3         1 2S9      -0.013700
     10 CAQ         -2.2720     2.3740     0.3050 c3         1 2S9      -0.399900
     11 CAM         -3.3050     3.2060    -0.4810 c3         1 2S9      -0.050900
     12 CAN         -4.5660     2.3320    -0.6110 c3         1 2S9      -0.050900
     13 CAR         -4.2530     1.0010     0.1020 c3         1 2S9      -0.399900
     14 OAB         -2.6750     0.4920     2.4530 oh         1 2S9      -0.567800
     15 CBD         -2.7070    -1.4230     0.9770 c3         1 2S9      -0.092700
     16 CAT         -2.2370    -1.9290    -0.3900 c3         1 2S9      -0.081900
     17 CAW         -2.6980    -3.3760    -0.5780 c3         1 2S9       0.166800
     18 CAS         -2.1510    -2.3390     2.0710 c3         1 2S9      -0.081900
     19 CAV         -2.6140    -3.7740     1.8100 c3         1 2S9       0.166800
     20 NBE         -2.1390    -4.2120     0.4920 n3         1 2S9      -0.722600
     21 CAU         -2.4460    -5.6310     0.2670 c3         1 2S9      -0.142200
     22 CAO         -1.6480    -6.4880     1.2500 c3         1 2S9      -0.351400
     23 CAP         -1.9670    -7.9660     1.0160 c3         1 2S9      -0.052600
     24 OAX         -1.2210    -8.7660     1.9340 os         1 2S9      -0.332900
     25 CBA         -1.3910   -10.1110     1.8580 ca         1 2S9       0.148100
     26 CAJ         -0.6960   -10.9470     2.7230 ca         1 2S9      -0.187500
     27 CAG         -0.8650   -12.3120     2.6500 ca         1 2S9      -0.051500
     28 CAZ         -1.7370   -12.8560     1.7040 ca         1 2S9      -0.080000
     29 CAD         -1.9170   -14.2750     1.6240 cg         1 2S9       0.234800
     30 NAA         -2.0750   -15.3970     1.5490 n1         1 2S9      -0.354800
     31 CAH         -2.4350   -12.0120     0.8360 ca         1 2S9      -0.051500
     32 CAK         -2.2640   -10.6470     0.9200 ca         1 2S9      -0.187500
     33 H1          -0.7650     0.1800    -0.7450 ha         1 2S9       0.173000
     34 H2           3.1350    -0.1310     1.3800 ha         1 2S9       0.150000
     35 H3           1.9560     0.2430     3.2820 ha         1 2S9       0.139000
     36 H4          -0.5960    -0.3290     3.2370 ha         1 2S9       0.148000
     37 H5          -2.3660     0.5570    -0.8950 hc         1 2S9       0.030700
     38 H6          -2.1850     3.0760    -0.5150 hc         1 2S9       0.165700
     39 H7          -1.3790     2.3470     0.9180 hc         1 2S9       0.165700
     40 H8          -4.1330     3.0890     0.2070 hc         1 2S9       0.057700
     41 H9          -3.1170     4.2720    -0.4720 hc         1 2S9       0.057700
     42 H10         -5.2990     3.1230    -0.7150 hc         1 2S9       0.057700
     43 H11         -4.5180     2.2300    -1.6890 hc         1 2S9       0.057700
     44 H12         -4.4210     0.0250     0.5410 hc         1 2S9       0.165700
     45 H13         -4.5250     1.4320    -0.8540 hc         1 2S9       0.165700
     46 H14         -1.9090     0.9510     2.7560 ho         1 2S9       0.402000
     47 H15         -3.7890    -1.4350     1.0120 hc         1 2S9       0.055700
     48 H16         -1.2070    -1.6440    -0.2120 hc         1 2S9       0.059950
     49 H17         -2.3510    -1.2340    -1.2140 hc         1 2S9       0.059950
     50 H18         -3.6940    -3.4930    -0.9860 h1         1 2S9       0.042700
     51 H19         -2.2870    -3.8410    -1.4660 h1         1 2S9       0.042700
     52 H20         -1.1850    -2.0160     1.7020 hc         1 2S9       0.059950
     53 H21         -2.3370    -1.8910     3.0390 hc         1 2S9       0.059950
     54 H22         -1.8250    -4.2330     2.3940 h1         1 2S9       0.042700
     55 H23         -3.5060    -4.3850     1.7530 h1         1 2S9       0.042700
     56 H25         -1.9450    -5.9590    -0.6360 h1         1 2S9       0.168200
     57 H26         -2.1980    -6.3840     1.0040 h1         1 2S9       0.168200
     58 H27         -2.3360    -7.2090     1.6750 hc         1 2S9       0.185200
     59 H28         -0.7470    -5.9750     1.5660 hc         1 2S9       0.185200
     60 H29         -2.9660    -8.1450     0.6340 h1         1 2S9       0.152700
     61 H30         -1.1780    -8.5900     0.6150 h1         1 2S9       0.152700
     62 H31          0.3640   -10.8800     2.9390 ha         1 2S9       0.153000
     63 H32         -0.5100   -13.0910     3.3140 ha         1 2S9       0.154000
     64 H33         -3.0470   -12.5710     0.1380 ha         1 2S9       0.154000
     65 H34         -2.6650    -9.9030     0.2420 ha         1 2S9       0.153000
@<TRIPOS>BOND
     1    30    29 3
     2    29    28 1
     3    28    27 ar
     4    28    31 ar
     5    27    26 ar
     6    31    32 ar
     7     5     4 ar
     8     5     6 ar
     9     4     2 ar
    10    26    25 ar
    11    32    25 ar
    12    25    24 1
    13    24    23 1
    14     6     7 ar
    15    17    16 1
    16    17    20 1
    17     2     3 1
    18     2     1 ar
    19    21    20 1
    20    21    22 1
    21    23    22 1
    22    16    15 1
    23    20    19 1
    24     7     1 ar
    25     7     8 1
    26    15     8 1
    27    15    18 1
    28    19    18 1
    29     8    14 1
    30     8     9 1
    31    10     9 1
    32    10    11 1
    33     9    13 1
    34    13    12 1
    35    11    12 1
    36     1    33 1
    37     4    34 1
    38     5    35 1
    39     6    36 1
    40     9    37 1
    41    10    38 1
    42    10    39 1
    43    11    40 1
    44    11    41 1
    45    12    42 1
    46    12    43 1
    47    13    44 1
    48    13    45 1
    49    14    46 1
    50    15    47 1
    51    16    48 1
    52    16    49 1
    53    17    50 1
    54    17    51 1
    55    18    52 1
    56    18    53 1
    57    19    54 1
    58    19    55 1
    59    21    56 1
    60    21    57 1
    61    22    58 1
    62    22    59 1
    63    23    60 1
    64    23    61 1
    65    26    62 1
    66    27    63 1
    67    31    64 1
    68    32    65 1
@<TRIPOS>SUBSTRUCTURE
     1 2S9         1 TEMP              0 ****  ****    0 ROOT
