@<TRIPOS>MOLECULE
2SB
   36    38     1     0     0
SMALL
bcc


@<TRIPOS>ATOM
      1 C1           0.0000     0.0000     0.0000 ca         1 2SB      -0.185000
      2 N1          -0.0830    -0.8970    -2.2570 nz         1 2SB       0.856000
      3 O1          -0.0120     1.7150    -2.7470 o          1 2SB      -0.377000
      4 Br1         -4.7760     9.2960    -1.3780 br         1 2SB       0.093000
      5 C2          -0.7530    -0.0010    -1.3050 c3         1 2SB      -0.225000
      6 N2          -1.6730     2.2940    -1.3940 ns         1 2SB       0.154000
      7 O2          -2.6730     9.6550    -3.5540 oh         1 2SB      -0.236000
      8 C3          -0.7850     1.3970    -1.8680 c2         1 2SB       0.200000
      9 N3          -1.7020     3.5940    -1.9180 n2         1 2SB      -0.059000
     10 C4          -2.5570     4.4570    -1.4610 c2         1 2SB      -0.398000
     11 C5          -2.5880     5.8240    -2.0120 c3         1 2SB      -0.184000
     12 C6           1.3830     0.0000     0.0000 ca         1 2SB      -0.079500
     13 C7           2.0740     0.0000     1.1970 ca         1 2SB      -0.066000
     14 C8           1.3830     0.0010     2.3940 ca         1 2SB      -0.044000
     15 C9           0.0010     0.0010     2.3940 ca         1 2SB      -0.066000
     16 C10         -0.6910     0.0060     1.1960 ca         1 2SB      -0.079500
     17 C11         -3.5080     6.7560    -1.5220 c2         1 2SB       0.055000
     18 C12         -3.5330     8.0330    -2.0390 c2         1 2SB      -0.206000
     19 C13         -2.6450     8.3950    -3.0470 c2         1 2SB       0.189000
     20 C14         -1.7300     7.4720    -3.5350 c2         1 2SB      -0.165000
     21 C15         -1.6940     6.1950    -3.0190 c2         1 2SB      -0.031000
     22 HN1          0.7730    -0.4790    -2.5630 hn         1 2SB       0.026667
     23 HN1A        -0.6790    -1.0520    -3.0460 hn         1 2SB       0.026667
     24 H2          -1.7670    -0.3450    -1.1370 hx         1 2SB       0.128000
     25 HN2         -2.3340     2.0220    -0.6950 hn         1 2SB       0.081000
     26 HO2         -3.2120     9.6700    -4.3270 ho         1 2SB       0.223000
     27 H4          -3.0130     4.7260    -2.4060 DU         1 2SB       0.349000
     28 H6           1.9240    -0.0010    -0.9380 ha         1 2SB       0.106500
     29 H7           3.1580    -0.0000     1.1970 ha         1 2SB       0.126500
     30 H8           1.9240    -0.0010     3.3320 ha         1 2SB       0.125000
     31 H9          -0.5410     0.0040     3.3320 ha         1 2SB       0.126500
     32 H10         -1.7740     0.0060     1.1970 ha         1 2SB       0.106500
     33 H11         -4.2350     6.4600    -0.7760 ha         1 2SB       0.137000
     34 H14         -1.0370     7.7600    -4.3160 ha         1 2SB       0.135000
     35 H15         -0.9790     5.4760    -3.4010 ha         1 2SB       0.132000
     36 H13          0.1070    -1.7730    -1.8130 hn         1 2SB       0.026667
@<TRIPOS>BOND
     1     1     5 1   
     2     1    12 1   
     3     1    16 1   
     4     2     5 1   
     5     2    22 1   
     6     2    23 1   
     7     2    36 1   
     8     3     8 1   
     9     4    18 1   
    10     5     8 1   
    11     5    24 1   
    12     6     8 1   
    13     6     9 1   
    14     6    25 1   
    15     7    19 1   
    16     7    26 1   
    17     9    10 1   
    18    10    11 1   
    19    10    27 1   
    20    11    17 1   
    21    11    21 1   
    22    11    27 1   
    23    12    13 1   
    24    12    28 1   
    25    13    14 1   
    26    13    29 1   
    27    14    15 1   
    28    14    30 1   
    29    15    16 1   
    30    15    31 1   
    31    16    32 1   
    32    17    18 1   
    33    17    33 1   
    34    18    19 1   
    35    19    20 1   
    36    20    21 1   
    37    20    34 1   
    38    21    35 1   
@<TRIPOS>SUBSTRUCTURE
     1 2SB         1 TEMP              0 ****  ****    0 ROOT
