@<TRIPOS>MOLECULE
molecule
   36    37     1     0     0
SMALL
bcc


@<TRIPOS>ATOM
      1 C1           0.0000     0.0000     0.0000 ca         1 2SB      -0.178300
      2 N1          -0.0830    -0.8970    -2.2570 nz         1 2SB      -0.795600
      3 O1          -0.0120     1.7150    -2.7470 o          1 2SB      -0.559100
      4 Br1         -4.7760     9.2960    -1.3780 br         1 2SB      -0.049100
      5 C2          -0.7530    -0.0010    -1.3050 c3         1 2SB       0.091800
      6 N2          -1.6730     2.2940    -1.3940 ns         1 2SB      -0.320900
      7 O2          -2.6730     9.6550    -3.5540 oh         1 2SB      -0.503100
      8 C3          -0.7850     1.3970    -1.8680 c          1 2SB       0.668100
      9 N3          -1.7020     3.5940    -1.9180 n2         1 2SB      -0.441300
     10 C4          -2.5570     4.4570    -1.4610 ce         1 2SB       0.455800
     11 C5          -2.5880     5.8240    -2.0120 ca         1 2SB      -0.174900
     12 C6           1.3830     0.0000     0.0000 ca         1 2SB      -0.109000
     13 C7           2.0740     0.0000     1.1970 ca         1 2SB      -0.100500
     14 C8           1.3830     0.0010     2.3940 ca         1 2SB      -0.077000
     15 C9           0.0010     0.0010     2.3940 ca         1 2SB      -0.100500
     16 C10         -0.6910     0.0060     1.1960 ca         1 2SB      -0.109000
     17 C11         -3.5080     6.7560    -1.5220 ca         1 2SB      -0.057000
     18 C12         -3.5330     8.0330    -2.0390 ca         1 2SB      -0.055900
     19 C13         -2.6450     8.3950    -3.0470 ca         1 2SB       0.168100
     20 C14         -1.7300     7.4720    -3.5350 ca         1 2SB      -0.162000
     21 C15         -1.6940     6.1950    -3.0190 ca         1 2SB      -0.056000
     22 HN1          0.7730    -0.4780    -2.5630 hn         1 2SB       0.464800
     23 HN1A        -0.6790    -1.0520    -3.0460 hn         1 2SB       0.464800
     24 H2          -1.7670    -0.3450    -1.1370 hx         1 2SB       0.116700
     25 HN2         -2.3320     2.0220    -0.6930 hn         1 2SB       0.304500
     26 HO2         -3.2120     9.6700    -4.3270 ho         1 2SB       0.437000
     27 H4          -3.2470     4.1730    -0.6760 h4         1 2SB      -0.003200
     28 H6           1.9240    -0.0010    -0.9380 ha         1 2SB       0.131500
     29 H7           3.1580    -0.0000     1.1970 ha         1 2SB       0.161500
     30 H8           1.9240    -0.0010     3.3320 ha         1 2SB       0.163000
     31 H9          -0.5410     0.0040     3.3320 ha         1 2SB       0.161500
     32 H10         -1.7740     0.0060     1.1970 ha         1 2SB       0.131500
     33 H11         -4.2370     6.4580    -0.7790 ha         1 2SB       0.149000
     34 H14         -1.0370     7.7600    -4.3160 ha         1 2SB       0.160000
     35 H15         -0.9790     5.4760    -3.4010 ha         1 2SB       0.160000
     36 H13          0.1070    -1.7730    -1.8130 hn         1 2SB       0.464800
@<TRIPOS>BOND
     1    12     1 ar
     2     1     5 1
     3     1    16 ar
     4     2     5 1
     5     2    22 1
     6     2    23 1
     7     3     8 2
     8    18     4 1
     9     8     5 1
    10     5    24 1
    11     8     6 1
    12     9     6 1
    13     6    25 1
    14    19     7 1
    15     7    26 1
    16     9    10 2
    17    10    11 1
    18    10    27 1
    19    21    11 ar
    20    11    17 ar
    21    13    12 ar
    22    12    28 1
    23    13    14 ar
    24    13    29 1
    25    14    15 ar
    26    14    30 1
    27    15    16 ar
    28    15    31 1
    29    16    32 1
    30    17    18 ar
    31    17    33 1
    32    19    18 ar
    33    20    19 ar
    34    21    20 ar
    35    20    34 1
    36    21    35 1
    37    36     2 1
@<TRIPOS>SUBSTRUCTURE
     1 2SB         1 TEMP              0 ****  ****    0 ROOT
