@<TRIPOS>MOLECULE
molecule
   42    45     1     0     0
SMALL
bcc


@<TRIPOS>ATOM
      1 C01          0.0000     0.0000     0.0000 cc         1 2SC      -0.343800
      2 C02          1.3890     0.0000     0.0000 cd         1 2SC       0.449500
      3 N03          1.7870     0.0000     1.3120 na         1 2SC      -0.001800
      4 N04          0.6330     0.0000     2.1060 nc         1 2SC      -0.601100
      5 C05         -0.4200     0.0050     1.3230 cd         1 2SC       0.455500
      6 N06          2.2920    -0.0010    -0.9880 nd         1 2SC      -0.732000
      7 C07          3.5890    -0.0010    -0.7240 cc         1 2SC       0.572800
      8 C08          4.0390    -0.0020     0.6080 cd         1 2SC      -0.426300
      9 C09          3.1220    -0.0000     1.6220 cc         1 2SC       0.336300
     10 N10          3.5360    -0.0000     2.9370 nu         1 2SC      -0.799600
     11 C11          4.5700    -0.0030    -1.8350 ca         1 2SC      -0.156500
     12 C12          4.9660    -0.0000     3.2560 c3         1 2SC       0.292100
     13 C13          5.1470     0.0000     4.7530 ca         1 2SC      -0.251600
     14 C14          5.2250     1.1920     5.4470 ca         1 2SC       0.442200
     15 N15          5.3780     1.2000     6.7570 nb         1 2SC      -0.688000
     16 C16          5.4620     0.0830     7.4530 ca         1 2SC       0.433200
     17 C17          5.3930    -1.1470     6.8250 ca         1 2SC      -0.256300
     18 C18          5.2310    -1.1960     5.4490 ca         1 2SC      -0.072000
     19 C19          4.1290    -0.0030    -3.1580 ca         1 2SC      -0.091500
     20 C20          5.0470    -0.0030    -4.1880 ca         1 2SC      -0.138500
     21 C21          6.4030    -0.0030    -3.9110 ca         1 2SC      -0.111000
     22 C22          6.8460    -0.0030    -2.6000 ca         1 2SC      -0.138500
     23 C23          5.9370     0.0030    -1.5610 ca         1 2SC      -0.091500
     24 C24         -0.8900     0.0010    -1.2170 c3         1 2SC       0.235600
     25 O25         -2.2590     0.0000    -0.8050 oh         1 2SC      -0.619800
     26 H05         -1.4510     0.0130     1.6560 h4         1 2SC       0.075800
     27 H08          5.0990    -0.0030     0.8290 ha         1 2SC       0.157000
     28 HN10         2.8590     0.0020     3.6750 hn         1 2SC       0.468800
     29 H121         5.4290    -0.8850     2.8360 h1         1 2SC       0.053700
     30 H122         5.4290     0.8840     2.8360 h1         1 2SC       0.053700
     31 H14          5.1610     2.1310     4.9100 h4         1 2SC       0.030100
     32 H16          5.5880     0.1290     8.5280 h4         1 2SC       0.028100
     33 H17          5.4620    -2.0610     7.4020 ha         1 2SC       0.144000
     34 H18          5.1740    -2.1450     4.9310 ha         1 2SC       0.144000
     35 H19          3.0680    -0.0030    -3.3760 ha         1 2SC       0.143500
     36 H20          4.7060    -0.0030    -5.2160 ha         1 2SC       0.132500
     37 H21          7.1190    -0.0060    -4.7230 ha         1 2SC       0.131000
     38 H22          7.9090    -0.0010    -2.3890 ha         1 2SC       0.132500
     39 H23          6.2850     0.0030    -0.5350 ha         1 2SC       0.143500
     40 H241        -0.6920     0.8860    -1.8090 h1         1 2SC       0.029700
     41 H242        -0.6910    -0.8830    -1.8110 h1         1 2SC       0.029700
     42 HO25        -2.8160    -0.0010    -1.5660 ho         1 2SC       0.404000
@<TRIPOS>BOND
     1    15    16 ar  
     2    15    14 ar  
     3    16    17 ar  
     4    14    13 ar  
     5    17    18 ar  
     6    13    18 ar  
     7    13    12 1   
     8    10    12 1   
     9    10     9 1   
    10     4     5 2   
    11     4     3 1   
    12     5     1 1   
    13     9     3 1   
    14     9     8 2   
    15     3     2 1   
    16     1     2 2   
    17     1    24 1   
    18     8     7 1   
    19     2     6 1   
    20    24    25 1   
    21     7     6 2   
    22     7    11 1   
    23    11    19 ar  
    24    11    23 ar  
    25    19    20 ar  
    26    23    22 ar  
    27    20    21 ar  
    28    22    21 ar  
    29     5    26 1   
    30     8    27 1   
    31    10    28 1   
    32    12    29 1   
    33    12    30 1   
    34    14    31 1   
    35    16    32 1   
    36    17    33 1   
    37    18    34 1   
    38    19    35 1   
    39    20    36 1   
    40    21    37 1   
    41    22    38 1   
    42    23    39 1   
    43    24    40 1   
    44    24    41 1   
    45    25    42 1   
@<TRIPOS>SUBSTRUCTURE
     1 2SC         1 TEMP              0 ****  ****    0 ROOT
