@<TRIPOS>MOLECULE
2SC
   42    45     1     0     0
SMALL
bcc


@<TRIPOS>ATOM
      1 C01          0.0000     0.0000     0.0000 cc         1 2SC      -0.378800
      2 C02          1.3890     0.0000     0.0000 cd         1 2SC       0.245500
      3 N03          1.7870     0.0000     1.3120 na         1 2SC       0.482200
      4 N04          0.6330     0.0000     2.1060 nd         1 2SC      -0.766100
      5 C05         -0.4200     0.0050     1.3230 cc         1 2SC       0.526500
      6 N06          2.2920    -0.0010    -0.9880 nd         1 2SC      -0.607000
      7 C07          3.5890    -0.0010    -0.7240 cc         1 2SC       0.518800
      8 C08          4.0390    -0.0020     0.6080 cc         1 2SC      -0.403300
      9 C09          3.1220    -0.0000     1.6220 cd         1 2SC       0.011300
     10 N10          3.5360    -0.0000     2.9370 nu         1 2SC      -0.381600
     11 C11          4.5700    -0.0030    -1.8350 ca         1 2SC      -0.161500
     12 C12          4.9660    -0.0000     3.2560 c3         1 2SC       0.233100
     13 C13          5.1470     0.0000     4.7530 ca         1 2SC      -0.253600
     14 C14          5.2250     1.1920     5.4470 ca         1 2SC       0.427200
     15 N15          5.3780     1.2000     6.7570 nb         1 2SC      -0.579000
     16 C16          5.4620     0.0830     7.4530 ca         1 2SC       0.419200
     17 C17          5.3930    -1.1470     6.8250 ca         1 2SC      -0.221300
     18 C18          5.2310    -1.1960     5.4490 ca         1 2SC      -0.046000
     19 C19          4.1290    -0.0030    -3.1580 ca         1 2SC      -0.073000
     20 C20          5.0470    -0.0030    -4.1880 ca         1 2SC      -0.110000
     21 C21          6.4030    -0.0030    -3.9110 ca         1 2SC      -0.087000
     22 C22          6.8460    -0.0030    -2.6000 ca         1 2SC      -0.110000
     23 C23          5.9370     0.0030    -1.5610 ca         1 2SC      -0.073000
     24 C24         -0.8900     0.0010    -1.2170 c3         1 2SC       0.339600
     25 O25         -2.2590     0.0000    -0.8050 oh         1 2SC      -0.602800
     26 H05         -1.4510     0.0130     1.6560 h4         1 2SC       0.023800
     27 H08          5.0990    -0.0030     0.8290 ha         1 2SC       0.150000
     28 HN10         2.8590     0.0020     3.6750 hn         1 2SC       0.319800
     29 H121         5.4290    -0.8850     2.8360 h1         1 2SC       0.024200
     30 H122         5.4290     0.8840     2.8360 h1         1 2SC       0.024200
     31 H14          5.1610     2.1310     4.9100 h4         1 2SC      -0.014900
     32 H16          5.5880     0.1290     8.5280 h4         1 2SC      -0.016900
     33 H17          5.4620    -2.0610     7.4020 ha         1 2SC       0.117000
     34 H18          5.1740    -2.1450     4.9310 ha         1 2SC       0.114000
     35 H19          3.0680    -0.0030    -3.3760 ha         1 2SC       0.116000
     36 H20          4.7060    -0.0030    -5.2160 ha         1 2SC       0.104000
     37 H21          7.1190    -0.0060    -4.7230 ha         1 2SC       0.101000
     38 H22          7.9090    -0.0010    -2.3890 ha         1 2SC       0.104000
     39 H23          6.2850     0.0030    -0.5350 ha         1 2SC       0.116000
     40 H241        -0.6920     0.8860    -1.8090 h1         1 2SC      -0.011300
     41 H242        -0.6910    -0.8830    -1.8110 h1         1 2SC      -0.011300
     42 HO25        -2.8160    -0.0010    -1.5660 ho         1 2SC       0.390000
@<TRIPOS>BOND
     1     1     2 2   
     2     1     5 1   
     3     1    24 1   
     4     2     3 1   
     5     2     6 1   
     6     3     4 1   
     7     3     9 1   
     8     4     5 2   
     9     5    26 1   
    10     6     7 2   
    11     7     8 1   
    12     7    11 1   
    13     8     9 2   
    14     8    27 1   
    15     9    10 1   
    16    10    12 1   
    17    10    28 1   
    18    11    19 ar  
    19    11    23 ar  
    20    12    13 1   
    21    12    29 1   
    22    12    30 1   
    23    13    14 ar  
    24    13    18 ar  
    25    14    15 ar  
    26    14    31 1   
    27    15    16 ar  
    28    16    17 ar  
    29    16    32 1   
    30    17    18 ar  
    31    17    33 1   
    32    18    34 1   
    33    19    20 ar  
    34    19    35 1   
    35    20    21 ar  
    36    20    36 1   
    37    21    22 ar  
    38    21    37 1   
    39    22    23 ar  
    40    22    38 1   
    41    23    39 1   
    42    24    25 1   
    43    24    40 1   
    44    24    41 1   
    45    25    42 1   
@<TRIPOS>SUBSTRUCTURE
     1 2SC         1 TEMP              0 ****  ****    0 ROOT
