@<TRIPOS>MOLECULE
2SD
   50    51     1     0     0
SMALL
bcc


@<TRIPOS>ATOM
      1 O8          0.2970   -0.0020   -0.7190 oh        1 2SD     -0.604800
      2 C8          1.6570    0.0200   -0.3330 c3        1 2SD      0.137100
      3 C9          1.8210   -0.1310    1.1860 c3        1 2SD      0.066100
      4 O9          1.3990   -1.4510    1.4890 oh        1 2SD     -0.604800
      5 C10         3.3000    0.0610    1.5630 c3        1 2SD      0.091100
      6 O10         4.1210   -0.9440    0.9980 oh        1 2SD     -0.584800
      7 C11         3.7720    1.4250    1.0460 c3        1 2SD      0.136100
      8 C12         5.2750    1.6210    1.2540 c3        1 2SD      0.140400
      9 O12         5.5150    3.0130    1.1130 oh        1 2SD     -0.621800
     10 O11         3.5650    1.5820   -0.3640 os        1 2SD     -0.422600
     11 C7          2.2560    1.3490   -0.8200 c3        1 2SD      0.329900
     12 O4          1.4840    2.4320   -0.3090 os        1 2SD     -0.429600
     13 C4          1.6360    3.6470   -1.0360 c3        1 2SD      0.089100
     14 C3          1.9160    4.7790   -0.0290 c3        1 2SD      0.122100
     15 O3          2.9730    4.5030    0.8630 oh        1 2SD     -0.598800
     16 C2          0.6840    5.0100    0.8640 c3        1 2SD      0.142100
     17 O2          0.8310    6.1260    1.7180 oh        1 2SD     -0.627800
     18 C1         -0.5270    5.3260   -0.0360 c3        1 2SD     -0.058100
     19 SAI        -1.9760    5.5520    0.8760 s6        1 2SD      1.363900
     20 OAM        -2.1380    4.7030    1.9450 o         1 2SD     -0.539800
     21 OAE        -2.3620    6.8740    0.8990 o         1 2SD     -0.539800
     22 NAJ        -3.2580    4.8630   -0.3180 n4        1 2SD     -0.798500
     23 O5         -0.7440    4.2410   -0.9200 os        1 2SD     -0.410600
     24 C5          0.3480    3.9640   -1.8100 c3        1 2SD      0.138100
     25 C6         -0.1690    2.7830   -2.6400 c3        1 2SD      0.122400
     26 O6         -1.4980    3.1180   -3.0160 oh        1 2SD     -0.628800
     27 HO8        -0.0710   -0.8230   -0.3630 ho        1 2SD      0.434000
     28 H8          2.2200   -0.8170   -0.8430 h1        1 2SD      0.085700
     29 H9          1.1820    0.6250    1.7190 h1        1 2SD      0.070700
     30 HO9         1.3460   -1.5210    2.4500 ho        1 2SD      0.422000
     31 H10         3.4070    0.0340    2.6850 h1        1 2SD      0.055700
     32 HO10        3.6680   -1.7890    1.1350 ho        1 2SD      0.423000
     33 H11         3.1880    2.2270    1.5840 h1        1 2SD      0.077700
     34 H12         5.8480    1.0300    0.4930 h1        1 2SD      0.059200
     35 H12A        5.5530    1.2890    2.2890 h1        1 2SD      0.059200
     36 HO12        6.4690    3.1260    1.0290 ho        1 2SD      0.420000
     37 H7          2.3210    1.3650   -1.9450 h2        1 2SD      0.090700
     38 H4          2.4960    3.5810   -1.7600 h1        1 2SD      0.089700
     39 H3          2.1580    5.7210   -0.6000 h1        1 2SD      0.062700
     40 HO3         3.6400    3.9650    0.4040 ho        1 2SD      0.461000
     41 H2          0.4880    4.0790    1.4700 h1        1 2SD      0.102700
     42 HO2         1.7240    6.0890    2.0960 ho        1 2SD      0.472000
     43 H1         -0.2790    6.2630   -0.6220 h2        1 2SD      0.140700
     44 HNAJ       -3.8890    5.5950   -0.6410 hn        1 2SD      0.473467
     45 HNAA       -3.8170    4.1440    0.1410 hn        1 2SD      0.473467
     46 H5          0.5150    4.8690   -2.4580 h1        1 2SD      0.069700
     47 H6          0.4850    2.6580   -3.5420 h1        1 2SD      0.073700
     48 H6A        -0.1730    1.8420   -2.0210 h1        1 2SD      0.073700
     49 HO6        -1.7710    2.4610   -3.6690 ho        1 2SD      0.427000
     50 HAJ3       -2.8340    4.4270   -1.1480 hn        1 2SD      0.473467
@<TRIPOS>BOND
     1    1    2 1
     2    1   27 1
     3    2    3 1
     4    2   11 1
     5    2   28 1
     6    3    4 1
     7    3    5 1
     8    3   29 1
     9    4   30 1
    10    5    6 1
    11    5    7 1
    12    5   31 1
    13    6   32 1
    14    7    8 1
    15    7   10 1
    16    7   33 1
    17    8    9 1
    18    8   34 1
    19    8   35 1
    20    9   36 1
    21   10   11 1
    22   11   12 1
    23   11   37 1
    24   12   13 1
    25   13   14 1
    26   13   24 1
    27   13   38 1
    28   14   15 1
    29   14   16 1
    30   14   39 1
    31   15   40 1
    32   16   17 1
    33   16   18 1
    34   16   41 1
    35   17   42 1
    36   18   19 1
    37   18   23 1
    38   18   43 1
    39   19   20 2
    40   19   21 2
    41   19   22 1
    42   22   44 1
    43   22   45 1
    44   22   50 1
    45   23   24 1
    46   24   25 1
    47   24   46 1
    48   25   26 1
    49   25   47 1
    50   25   48 1
    51   26   49 1
@<TRIPOS>SUBSTRUCTURE
     1 2SD         1 TEMP              0 ****  ****    0 ROOT
