@<TRIPOS>MOLECULE
2SE
   69    72     1     0     0
SMALL
bcc


@<TRIPOS>ATOM
      1 CAI          0.0000     0.0000     0.0000 ca         1 2SE      -0.190000
      2 CAK          1.3810     0.0000     0.0000 ca         1 2SE       0.055500
      3 CBA          2.0750     0.0000     1.1950 ca         1 2SE      -0.278500
      4 SBG          3.8370     0.0020     1.1920 sy         1 2SE       0.936200
      5 OAB          4.2420    -0.5430     2.4400 o          1 2SE      -0.498800
      6 OAC          4.2350    -0.5420    -0.0590 o          1 2SE      -0.498800
      7 NAA          4.3260     1.5840     1.1910 nz         1 2SE      -0.131500
      8 CAL          1.3880    -0.0000     2.3960 ca         1 2SE       0.055500
      9 CAJ          0.0060    -0.0010     2.4010 ca         1 2SE      -0.190000
     10 CAZ         -0.6920    -0.0010     1.2020 ca         1 2SE       0.262100
     11 OAY         -2.0500     0.0040     1.2060 os         1 2SE      -0.277900
     12 CAP         -2.6960     0.0040     2.4810 c3         1 2SE       0.200400
     13 CAO         -4.2140     0.0110     2.2840 c3         1 2SE      -0.044400
     14 CAU         -4.9040     0.0110     3.6490 c3         1 2SE       0.161800
     15 NBE         -6.3610     0.0160     3.4600 n3         1 2SE      -0.537600
     16 CAW         -7.0560     0.2540     4.7310 c3         1 2SE       0.153800
     17 CAT         -8.5570     0.3990     4.4750 c3         1 2SE      -0.039900
     18 CAV         -6.8160    -1.2300     2.8310 c3         1 2SE       0.153800
     19 CAS         -8.3110    -1.1290     2.5180 c3         1 2SE      -0.039900
     20 CBD         -9.0840    -0.8790     3.8160 c3         1 2SE      -0.043700
     21 CBF        -10.5720    -0.7170     3.5020 c3         1 2SE       0.140500
     22 CBC        -11.3240    -0.3290     4.7770 c3         1 2SE      -0.082700
     23 CAQ        -12.8450    -0.2300     4.5010 c3         1 2SE      -0.028900
     24 CAM        -13.4620    -0.4470     5.9050 c3         1 2SE      -0.021900
     25 CAN        -12.5620    -1.5210     6.5520 c3         1 2SE      -0.021900
     26 CAR        -11.2030    -1.4460     5.8350 c3         1 2SE      -0.028900
     27 OAD        -11.0900    -1.9500     2.9990 oh         1 2SE      -0.590800
     28 CBB        -10.7520     0.3630     2.4650 ca         1 2SE       0.339600
     29 NAX        -10.7820     1.6270     2.8400 nb         1 2SE      -0.566000
     30 CAG        -10.9370     2.6050     1.9680 ca         1 2SE       0.402200
     31 CAE        -11.0740     2.3350     0.6200 ca         1 2SE      -0.218300
     32 CAF        -11.0470     1.0170     0.1880 ca         1 2SE      -0.064000
     33 CAH        -10.8770     0.0170     1.1330 ca         1 2SE      -0.220300
     34 H1          -0.5420    -0.0000    -0.9380 ha         1 2SE       0.146500
     35 H2           1.9220     0.0010    -0.9390 ha         1 2SE       0.123500
     36 H3           5.3260     1.6240     1.1800 hn         1 2SE       0.312467
     37 H4           3.9830     2.0390     2.0130 hn         1 2SE       0.312467
     38 H5           1.9330    -0.0000     3.3320 ha         1 2SE       0.123500
     39 H6          -0.5320    -0.0010     3.3420 ha         1 2SE       0.146500
     40 H7          -2.4070    -0.8830     3.0310 h1         1 2SE       0.007200
     41 H8          -2.3990     0.8860     3.0350 h1         1 2SE       0.007200
     42 H9          -4.5020     0.8980     1.7340 hc         1 2SE       0.040200
     43 H10         -4.5100    -0.8710     1.7290 hc         1 2SE       0.040200
     44 H11         -4.6090     0.8930     4.2040 h1         1 2SE       0.007700
     45 H12         -4.6150    -0.8760     4.2000 h1         1 2SE       0.007700
     46 H14         -6.8840    -0.5830     5.3970 h1         1 2SE       0.008200
     47 H15         -6.6790     1.1640     5.1830 h1         1 2SE       0.008200
     48 H16         -9.0700     0.5560     5.4160 hc         1 2SE       0.037200
     49 H17         -8.7310     1.2420     3.8170 hc         1 2SE       0.037200
     50 H18         -6.6460    -2.0580     3.5100 h1         1 2SE       0.008200
     51 H19         -6.2660    -1.3910     1.9120 h1         1 2SE       0.008200
     52 H20         -8.4810    -0.3080     1.8330 hc         1 2SE       0.037200
     53 H21         -8.6490    -2.0560     2.0710 hc         1 2SE       0.037200
     54 H22         -8.9400    -1.7160     4.4880 hc         1 2SE       0.044700
     55 H23        -10.9510     0.6070     5.1740 hc         1 2SE       0.062700
     56 H24        -13.1610    -1.0100     3.8190 hc         1 2SE       0.019700
     57 H25        -13.1000     0.7510     4.1190 hc         1 2SE       0.019700
     58 H26        -13.4270     0.4700     6.4790 hc         1 2SE       0.013950
     59 H27        -14.4790    -0.8100     5.8180 hc         1 2SE       0.013950
     60 H28        -12.4350    -1.3100     7.6070 hc         1 2SE       0.013950
     61 H29        -12.9990    -2.5020     6.4140 hc         1 2SE       0.013950
     62 H30        -10.9880    -2.3910     5.3510 hc         1 2SE       0.019700
     63 H31        -10.4230    -1.2000     6.5450 hc         1 2SE       0.019700
     64 H32        -11.8970    -1.7880     2.5380 ho         1 2SE       0.405000
     65 H33        -10.9580     3.6310     2.3130 h4         1 2SE      -0.017900
     66 H34        -11.2030     3.1420    -0.0910 ha         1 2SE       0.115000
     67 H35        -11.1500     0.7760    -0.8630 ha         1 2SE       0.111000
     68 H36        -10.8510    -1.0230     0.8320 ha         1 2SE       0.129000
     69 HAA3         3.9670     2.0430     0.3780 hn         1 2SE       0.312467
@<TRIPOS>BOND
     1     1     2 ar  
     2     1    10 ar  
     3     1    34 1   
     4     2     3 ar  
     5     2    35 1   
     6     3     4 1   
     7     3     8 ar  
     8     4     5 2   
     9     4     6 2   
    10     4     7 1   
    11     7    36 1   
    12     7    37 1   
    13     7    69 1   
    14     8     9 ar  
    15     8    38 1   
    16     9    10 ar  
    17     9    39 1   
    18    10    11 1   
    19    11    12 1   
    20    12    13 1   
    21    12    40 1   
    22    12    41 1   
    23    13    14 1   
    24    13    42 1   
    25    13    43 1   
    26    14    15 1   
    27    14    44 1   
    28    14    45 1   
    29    15    16 1   
    30    15    18 1   
    31    16    17 1   
    32    16    46 1   
    33    16    47 1   
    34    17    20 1   
    35    17    48 1   
    36    17    49 1   
    37    18    19 1   
    38    18    50 1   
    39    18    51 1   
    40    19    20 1   
    41    19    52 1   
    42    19    53 1   
    43    20    21 1   
    44    20    54 1   
    45    21    22 1   
    46    21    27 1   
    47    21    28 1   
    48    22    23 1   
    49    22    26 1   
    50    22    55 1   
    51    23    24 1   
    52    23    56 1   
    53    23    57 1   
    54    24    25 1   
    55    24    58 1   
    56    24    59 1   
    57    25    26 1   
    58    25    60 1   
    59    25    61 1   
    60    26    62 1   
    61    26    63 1   
    62    27    64 1   
    63    28    29 ar  
    64    28    33 ar  
    65    29    30 ar  
    66    30    31 ar  
    67    30    65 1   
    68    31    32 ar  
    69    31    66 1   
    70    32    33 ar  
    71    32    67 1   
    72    33    68 1   
@<TRIPOS>SUBSTRUCTURE
     1 2SE         1 TEMP              0 ****  ****    0 ROOT
