@<TRIPOS>MOLECULE
molecule
   69    72     1     0     0
SMALL
bcc


@<TRIPOS>ATOM
      1 CAI          0.0000     0.0000     0.0000 ca         1 2SE      -0.198000
      2 CAK          1.3810     0.0000     0.0000 ca         1 2SE       0.008500
      3 CBA          2.0750     0.0000     1.1950 ca         1 2SE      -0.388500
      4 SBG          3.8370     0.0020     1.1920 sy         1 2SE       1.227200
      5 OAB          4.2420    -0.5430     2.4400 o          1 2SE      -0.523300
      6 OAC          4.2350    -0.5420    -0.0590 o          1 2SE      -0.523300
      7 NAA          4.3260     1.5840     1.1910 nz         1 2SE      -0.805500
      8 CAL          1.3880    -0.0000     2.3960 ca         1 2SE       0.008500
      9 CAJ          0.0060    -0.0010     2.4010 ca         1 2SE      -0.198000
     10 CAZ         -0.6920    -0.0010     1.2020 ca         1 2SE       0.248100
     11 OAY         -2.0500     0.0040     1.2060 os         1 2SE      -0.294900
     12 CAP         -2.6960     0.0040     2.4810 c3         1 2SE       0.124400
     13 CAO         -4.2140     0.0110     2.2840 c3         1 2SE      -0.083400
     14 CAU         -4.9040     0.0110     3.6490 c3         1 2SE       0.167800
     15 NBE         -6.3610     0.0160     3.4600 n3         1 2SE      -0.727600
     16 CAW         -7.0560     0.2540     4.7310 c3         1 2SE       0.162300
     17 CAT         -8.5570     0.3990     4.4750 c3         1 2SE      -0.077400
     18 CAV         -6.8160    -1.2300     2.8310 c3         1 2SE       0.162300
     19 CAS         -8.3110    -1.1290     2.5180 c3         1 2SE      -0.077400
     20 CBD         -9.0840    -0.8790     3.8160 c3         1 2SE      -0.051700
     21 CBF        -10.5720    -0.7170     3.5020 c3         1 2SE       0.121500
     22 CBC        -11.3240    -0.3290     4.7770 c3         1 2SE      -0.087700
     23 CAQ        -12.8450    -0.2300     4.5010 c3         1 2SE      -0.080900
     24 CAM        -13.4620    -0.4470     5.9050 c3         1 2SE      -0.081400
     25 CAN        -12.5620    -1.5210     6.5520 c3         1 2SE      -0.081400
     26 CAR        -11.2030    -1.4460     5.8350 c3         1 2SE      -0.080900
     27 OAD        -11.0900    -1.9500     2.9990 oh         1 2SE      -0.600800
     28 CBB        -10.7520     0.3630     2.4650 ca         1 2SE       0.394600
     29 NAX        -10.7820     1.6270     2.8400 nb         1 2SE      -0.687000
     30 CAG        -10.9370     2.6050     1.9680 ca         1 2SE       0.421200
     31 CAE        -11.0740     2.3350     0.6200 ca         1 2SE      -0.253300
     32 CAF        -11.0470     1.0170     0.1880 ca         1 2SE      -0.090000
     33 CAH        -10.8770     0.0170     1.1330 ca         1 2SE      -0.251300
     34 H1          -0.5420    -0.0000    -0.9380 ha         1 2SE       0.173000
     35 H2           1.9220     0.0010    -0.9390 ha         1 2SE       0.156500
     36 H3           5.3260     1.6240     1.1800 hn         1 2SE       0.490133
     37 H4           3.9830     2.0390     2.0130 hn         1 2SE       0.490133
     38 H5           1.9330    -0.0000     3.3320 ha         1 2SE       0.156500
     39 H6          -0.5320    -0.0010     3.3420 ha         1 2SE       0.173000
     40 H7          -2.4070    -0.8830     3.0310 h1         1 2SE       0.045200
     41 H8          -2.3990     0.8860     3.0350 h1         1 2SE       0.045200
     42 H9          -4.5020     0.8980     1.7340 hc         1 2SE       0.072200
     43 H10         -4.5100    -0.8710     1.7290 hc         1 2SE       0.072200
     44 H11         -4.6090     0.8930     4.2040 h1         1 2SE       0.033200
     45 H12         -4.6150    -0.8760     4.2000 h1         1 2SE       0.033200
     46 H14         -6.8840    -0.5830     5.3970 h1         1 2SE       0.033200
     47 H15         -6.6790     1.1640     5.1830 h1         1 2SE       0.033200
     48 H16         -9.0700     0.5560     5.4160 hc         1 2SE       0.063450
     49 H17         -8.7310     1.2420     3.8170 hc         1 2SE       0.063450
     50 H18         -6.6460    -2.0580     3.5100 h1         1 2SE       0.033200
     51 H19         -6.2660    -1.3910     1.9120 h1         1 2SE       0.033200
     52 H20         -8.4810    -0.3080     1.8330 hc         1 2SE       0.063450
     53 H21         -8.6490    -2.0560     2.0710 hc         1 2SE       0.063450
     54 H22         -8.9400    -1.7160     4.4880 hc         1 2SE       0.067700
     55 H23        -10.9510     0.6070     5.1740 hc         1 2SE       0.080700
     56 H24        -13.1610    -1.0100     3.8190 hc         1 2SE       0.046200
     57 H25        -13.1000     0.7510     4.1190 hc         1 2SE       0.046200
     58 H26        -13.4270     0.4700     6.4790 hc         1 2SE       0.044200
     59 H27        -14.4790    -0.8100     5.8180 hc         1 2SE       0.044200
     60 H28        -12.4350    -1.3100     7.6070 hc         1 2SE       0.044200
     61 H29        -12.9990    -2.5020     6.4140 hc         1 2SE       0.044200
     62 H30        -10.9880    -2.3910     5.3510 hc         1 2SE       0.046200
     63 H31        -10.4230    -1.2000     6.5450 hc         1 2SE       0.046200
     64 H32        -11.8970    -1.7880     2.5380 ho         1 2SE       0.412000
     65 H33        -10.9580     3.6310     2.3130 h4         1 2SE       0.025100
     66 H34        -11.2030     3.1420    -0.0910 ha         1 2SE       0.141000
     67 H35        -11.1500     0.7760    -0.8630 ha         1 2SE       0.141000
     68 H36        -10.8510    -1.0230     0.8320 ha         1 2SE       0.149000
     69 HAA3         3.9670     2.0430     0.3780 hn         1 2SE       0.490133
@<TRIPOS>BOND
     1     5     4 2
     2     4     7 1
     3     4     3 1
     4     4     6 2
     5     3     2 ar
     6     3     8 ar
     7    24    23 1
     8    24    25 1
     9     2     1 ar
    10     8     9 ar
    11     1    10 ar
    12     9    10 ar
    13    10    11 1
    14    18    19 1
    15    18    15 1
    16    23    22 1
    17    25    26 1
    18    11    12 1
    19    14    15 1
    20    14    13 1
    21    19    20 1
    22    12    13 1
    23    22    26 1
    24    22    21 1
    25    15    16 1
    26    20    21 1
    27    20    17 1
    28    16    17 1
    29    21    28 1
    30    21    27 1
    31    29    28 ar
    32    29    30 ar
    33    28    33 ar
    34    30    31 ar
    35    33    32 ar
    36    31    32 ar
    37     1    34 1
    38     2    35 1
    39     7    36 1
    40     7    37 1
    41     8    38 1
    42     9    39 1
    43    12    40 1
    44    12    41 1
    45    13    42 1
    46    13    43 1
    47    14    44 1
    48    14    45 1
    49    16    46 1
    50    16    47 1
    51    17    48 1
    52    17    49 1
    53    18    50 1
    54    18    51 1
    55    19    52 1
    56    19    53 1
    57    20    54 1
    58    22    55 1
    59    23    56 1
    60    23    57 1
    61    24    58 1
    62    24    59 1
    63    25    60 1
    64    25    61 1
    65    26    62 1
    66    26    63 1
    67    27    64 1
    68    30    65 1
    69    31    66 1
    70    32    67 1
    71    33    68 1
    72    69     7 1
@<TRIPOS>SUBSTRUCTURE
     1 2SE         1 TEMP              0 ****  ****    0 ROOT
