@<TRIPOS>MOLECULE
molecule
   67    70     1     0     0
SMALL
bcc


@<TRIPOS>ATOM
      1 CAK          0.0000     0.0000     0.0000 ca         1 2SF      -0.195000
      2 CAI          1.3780     0.0000     0.0000 ca         1 2SF      -0.050000
      3 CAY          2.0740     0.0000     1.2120 ca         1 2SF      -0.052000
      4 CAC          3.5060     0.0000     1.2170 cg         1 2SF       0.235800
      5 NAA          4.6420    -0.0050     1.2020 n1         1 2SF      -0.352800
      6 CAJ          1.3690    -0.0000     2.4180 ca         1 2SF      -0.050000
      7 CAL         -0.0080    -0.0010     2.4090 ca         1 2SF      -0.195000
      8 CAZ         -0.6970     0.0050     1.2030 ca         1 2SF       0.157100
      9 OAX         -2.0550     0.0040     1.1980 os         1 2SF      -0.326900
     10 CAP         -2.6980     0.0100    -0.0780 c3         1 2SF       0.138400
     11 CAO         -4.2160     0.0090     0.1170 c3         1 2SF      -0.085400
     12 CAU         -4.9060     0.0150    -1.2490 c3         1 2SF       0.165800
     13 NBD         -6.3630     0.0130    -1.0620 n3         1 2SF      -0.727600
     14 CAW         -7.0570     0.2580    -2.3320 c3         1 2SF       0.167300
     15 CAT         -8.5590     0.3940    -2.0770 c3         1 2SF      -0.080900
     16 CAV         -6.8130    -1.2390    -0.4420 c3         1 2SF       0.167300
     17 CAS         -8.3080    -1.1480    -0.1300 c3         1 2SF      -0.080900
     18 CBC         -9.0800    -0.8910    -1.4270 c3         1 2SF      -0.085700
     19 CBE        -10.5710    -0.7380    -1.1130 c3         1 2SF       0.183500
     20 CBB        -11.3240    -0.3580    -2.3890 c3         1 2SF      -0.099700
     21 CAQ        -12.8450    -0.3260    -2.1290 c3         1 2SF      -0.088400
     22 CAM        -13.5180    -0.8890    -3.3930 c3         1 2SF      -0.083900
     23 CAN        -12.3840    -1.2430    -4.3770 c3         1 2SF      -0.083900
     24 CAR        -11.1460    -1.4530    -3.4700 c3         1 2SF      -0.088400
     25 NAB        -11.0950    -2.0070    -0.5940 nz         1 2SF      -0.811600
     26 CBA        -10.7570     0.3430    -0.0790 ca         1 2SF      -0.142300
     27 CAG        -10.9480     1.6540    -0.4750 ca         1 2SF      -0.123500
     28 CAE        -11.1190     2.6450     0.4730 ca         1 2SF      -0.100500
     29 CAD        -11.1000     2.3240     1.8170 ca         1 2SF      -0.090000
     30 CAF        -10.9090     1.0140     2.2140 ca         1 2SF      -0.100500
     31 CAH        -10.7430     0.0230     1.2650 ca         1 2SF      -0.123500
     32 H1          -0.5410    -0.0020    -0.9390 ha         1 2SF       0.144500
     33 H2           1.9200    -0.0610    -0.9360 ha         1 2SF       0.148500
     34 H3           1.9040     0.0620     3.3580 ha         1 2SF       0.148500
     35 H4          -0.5550    -0.0050     3.3440 ha         1 2SF       0.144500
     36 H5          -2.4050     0.8960    -0.6270 h1         1 2SF       0.040200
     37 H6          -2.4050    -0.8730    -0.6340 h1         1 2SF       0.040200
     38 H7          -4.5090    -0.8780     0.6660 hc         1 2SF       0.063700
     39 H8          -4.5090     0.8920     0.6730 hc         1 2SF       0.063700
     40 H9          -4.6130    -0.8670    -1.8050 h1         1 2SF       0.043700
     41 H10         -4.6140     0.9020    -1.7970 h1         1 2SF       0.043700
     42 H12         -6.6830     1.1730    -2.7750 h1         1 2SF       0.048950
     43 H13         -6.8810    -0.5730    -3.0040 h1         1 2SF       0.048950
     44 H14         -8.7370     1.2320    -1.4130 hc         1 2SF       0.057450
     45 H15         -9.0710     0.5560    -3.0180 hc         1 2SF       0.057450
     46 H16         -6.6380    -2.0610    -1.1260 h1         1 2SF       0.048950
     47 H17         -6.2630    -1.4040     0.4760 h1         1 2SF       0.048950
     48 H18         -8.6420    -2.0800     0.3100 hc         1 2SF       0.057450
     49 H19         -8.4820    -0.3320     0.5610 hc         1 2SF       0.057450
     50 H20         -8.9320    -1.7230    -2.1050 hc         1 2SF       0.062700
     51 H21        -10.9860     0.6000    -2.7640 hc         1 2SF       0.111700
     52 H22        -13.1690     0.6930    -1.9600 hc         1 2SF       0.044200
     53 H23        -13.0870    -0.9460    -1.2740 hc         1 2SF       0.044200
     54 H24        -14.0830    -1.7790    -3.1460 hc         1 2SF       0.065950
     55 H25        -14.1660    -0.1400    -3.8310 hc         1 2SF       0.065950
     56 H26        -12.6200    -2.1550    -4.9120 hc         1 2SF       0.065950
     57 H27        -12.2130    -0.4250    -5.0660 hc         1 2SF       0.065950
     58 H28        -11.1630    -2.4390    -3.0220 hc         1 2SF       0.044200
     59 H29        -10.2320    -1.2930    -4.0290 hc         1 2SF       0.044200
     60 H30        -12.0270    -1.8710    -0.2580 hn         1 2SF       0.454467
     61 H31        -11.1000    -2.6900    -1.3260 hn         1 2SF       0.454467
     62 H33        -10.9630     1.9040    -1.5290 ha         1 2SF       0.125000
     63 H34        -11.2690     3.6720     0.1620 ha         1 2SF       0.156500
     64 H35        -11.2320     3.1010     2.5610 ha         1 2SF       0.159000
     65 H36        -10.8960     0.7630     3.2680 ha         1 2SF       0.156500
     66 H37        -10.5940    -1.0040     1.5760 ha         1 2SF       0.125000
     67 HAB3       -10.4980    -2.3410     0.1370 hn         1 2SF       0.454467
@<TRIPOS>BOND
     1    23    24 1
     2    23    22 1
     3    24    20 1
     4    22    21 1
     5    20    21 1
     6    20    19 1
     7    25    19 1
     8    17    16 1
     9    17    18 1
    10    19    18 1
    11    19    26 1
    12    16    13 1
    13    18    15 1
    14    11    10 1
    15    11    12 1
    16    26    31 ar
    17    26    27 ar
    18    31    30 ar
    19    13    12 1
    20    13    14 1
    21    15    14 1
    22    10     9 1
    23    30    29 ar
    24    27    28 ar
    25     9     8 1
    26     8     7 ar
    27     8     1 ar
    28     7     6 ar
    29     1     2 ar
    30     6     3 ar
    31    28    29 ar
    32     2     3 ar
    33     3     4 1
    34     4     5 3
    35     1    32 1
    36     2    33 1
    37     6    34 1
    38     7    35 1
    39    10    36 1
    40    10    37 1
    41    11    38 1
    42    11    39 1
    43    12    40 1
    44    12    41 1
    45    14    42 1
    46    14    43 1
    47    15    44 1
    48    15    45 1
    49    16    46 1
    50    16    47 1
    51    17    48 1
    52    17    49 1
    53    18    50 1
    54    20    51 1
    55    21    52 1
    56    21    53 1
    57    22    54 1
    58    22    55 1
    59    23    56 1
    60    23    57 1
    61    24    58 1
    62    24    59 1
    63    25    60 1
    64    25    61 1
    65    27    62 1
    66    28    63 1
    67    29    64 1
    68    30    65 1
    69    31    66 1
    70    67    25 1
@<TRIPOS>SUBSTRUCTURE
     1 2SF         1 TEMP              0 ****  ****    0 ROOT
