@<TRIPOS>MOLECULE
2SF
   67    70     1     0     0
SMALL
bcc


@<TRIPOS>ATOM
      1 CAK          0.0000     0.0000     0.0000 ca         1 2SF      -0.179000
      2 CAI          1.3780     0.0000     0.0000 ca         1 2SF      -0.024500
      3 CAY          2.0740     0.0000     1.2120 ca         1 2SF      -0.009000
      4 CAC          3.5060     0.0000     1.2170 cg         1 2SF       0.226800
      5 NAA          4.6420    -0.0050     1.2020 n1         1 2SF      -0.370800
      6 CAJ          1.3690    -0.0000     2.4180 ca         1 2SF      -0.024500
      7 CAL         -0.0080    -0.0010     2.4090 ca         1 2SF      -0.179000
      8 CAZ         -0.6970     0.0050     1.2030 ca         1 2SF       0.164100
      9 OAX         -2.0550     0.0040     1.1980 os         1 2SF      -0.304900
     10 CAP         -2.6980     0.0100    -0.0780 c3         1 2SF       0.205400
     11 CAO         -4.2160     0.0090     0.1170 c3         1 2SF      -0.044400
     12 CAU         -4.9060     0.0150    -1.2490 c3         1 2SF       0.159800
     13 NBD         -6.3630     0.0130    -1.0620 n3         1 2SF      -0.535600
     14 CAW         -7.0570     0.2580    -2.3320 c3         1 2SF       0.157300
     15 CAT         -8.5590     0.3940    -2.0770 c3         1 2SF      -0.040400
     16 CAV         -6.8130    -1.2390    -0.4420 c3         1 2SF       0.157300
     17 CAS         -8.3080    -1.1480    -0.1300 c3         1 2SF      -0.040400
     18 CBC         -9.0800    -0.8910    -1.4270 c3         1 2SF      -0.062700
     19 CBE        -10.5710    -0.7380    -1.1130 c3         1 2SF       0.012500
     20 CBB        -11.3240    -0.3580    -2.3890 c3         1 2SF      -0.084700
     21 CAQ        -12.8450    -0.3260    -2.1290 c3         1 2SF      -0.033400
     22 CAM        -13.5180    -0.8890    -3.3930 c3         1 2SF      -0.020900
     23 CAN        -12.3840    -1.2430    -4.3770 c3         1 2SF      -0.020900
     24 CAR        -11.1460    -1.4530    -3.4700 c3         1 2SF      -0.033400
     25 NAB        -11.0950    -2.0070    -0.5940 nz         1 2SF       0.010400
     26 CBA        -10.7570     0.3430    -0.0790 ca         1 2SF      -0.155300
     27 CAG        -10.9480     1.6540    -0.4750 ca         1 2SF      -0.102500
     28 CAE        -11.1190     2.6450     0.4730 ca         1 2SF      -0.063500
     29 CAD        -11.1000     2.3240     1.8170 ca         1 2SF      -0.056000
     30 CAF        -10.9090     1.0140     2.2140 ca         1 2SF      -0.063500
     31 CAH        -10.7430     0.0230     1.2650 ca         1 2SF      -0.102500
     32 H1          -0.5410    -0.0020    -0.9390 ha         1 2SF       0.122000
     33 H2           1.9200    -0.0610    -0.9360 ha         1 2SF       0.115500
     34 H3           1.9040     0.0620     3.3580 ha         1 2SF       0.115500
     35 H4          -0.5550    -0.0050     3.3440 ha         1 2SF       0.122000
     36 H5          -2.4050     0.8960    -0.6270 h1         1 2SF       0.005200
     37 H6          -2.4050    -0.8730    -0.6340 h1         1 2SF       0.005200
     38 H7          -4.5090    -0.8780     0.6660 hc         1 2SF       0.032200
     39 H8          -4.5090     0.8920     0.6730 hc         1 2SF       0.032200
     40 H9          -4.6130    -0.8670    -1.8050 h1         1 2SF       0.016700
     41 H10         -4.6140     0.9020    -1.7970 h1         1 2SF       0.016700
     42 H12         -6.6830     1.1730    -2.7750 h1         1 2SF       0.022200
     43 H13         -6.8810    -0.5730    -3.0040 h1         1 2SF       0.022200
     44 H14         -8.7370     1.2320    -1.4130 hc         1 2SF       0.033450
     45 H15         -9.0710     0.5560    -3.0180 hc         1 2SF       0.033450
     46 H16         -6.6380    -2.0610    -1.1260 h1         1 2SF       0.022200
     47 H17         -6.2630    -1.4040     0.4760 h1         1 2SF       0.022200
     48 H18         -8.6420    -2.0800     0.3100 hc         1 2SF       0.033450
     49 H19         -8.4820    -0.3320     0.5610 hc         1 2SF       0.033450
     50 H20         -8.9320    -1.7230    -2.1050 hc         1 2SF       0.043700
     51 H21        -10.9860     0.6000    -2.7640 hc         1 2SF       0.091700
     52 H22        -13.1690     0.6930    -1.9600 hc         1 2SF       0.017950
     53 H23        -13.0870    -0.9460    -1.2740 hc         1 2SF       0.017950
     54 H24        -14.0830    -1.7790    -3.1460 hc         1 2SF       0.033200
     55 H25        -14.1660    -0.1400    -3.8310 hc         1 2SF       0.033200
     56 H26        -12.6200    -2.1550    -4.9120 hc         1 2SF       0.033200
     57 H27        -12.2130    -0.4250    -5.0660 hc         1 2SF       0.033200
     58 H28        -11.1630    -2.4390    -3.0220 hc         1 2SF       0.017950
     59 H29        -10.2320    -1.2930    -4.0290 hc         1 2SF       0.017950
     60 H30        -12.0270    -1.8710    -0.2580 hn         1 2SF       0.241133
     61 H31        -11.1000    -2.6900    -1.3260 hn         1 2SF       0.241133
     62 H33        -10.9630     1.9040    -1.5290 ha         1 2SF       0.106500
     63 H34        -11.2690     3.6720     0.1620 ha         1 2SF       0.124000
     64 H35        -11.2320     3.1010     2.5610 ha         1 2SF       0.125000
     65 H36        -10.8960     0.7630     3.2680 ha         1 2SF       0.124000
     66 H37        -10.5940    -1.0040     1.5760 ha         1 2SF       0.106500
     67 HAB3       -10.4980    -2.3410     0.1370 hn         1 2SF       0.241133
@<TRIPOS>BOND
     1     1     2 ar  
     2     1     8 ar  
     3     1    32 1   
     4     2     3 ar  
     5     2    33 1   
     6     3     4 1   
     7     3     6 ar  
     8     4     5 3   
     9     6     7 ar  
    10     6    34 1   
    11     7     8 ar  
    12     7    35 1   
    13     8     9 1   
    14     9    10 1   
    15    10    11 1   
    16    10    36 1   
    17    10    37 1   
    18    11    12 1   
    19    11    38 1   
    20    11    39 1   
    21    12    13 1   
    22    12    40 1   
    23    12    41 1   
    24    13    14 1   
    25    13    16 1   
    26    14    15 1   
    27    14    42 1   
    28    14    43 1   
    29    15    18 1   
    30    15    44 1   
    31    15    45 1   
    32    16    17 1   
    33    16    46 1   
    34    16    47 1   
    35    17    18 1   
    36    17    48 1   
    37    17    49 1   
    38    18    19 1   
    39    18    50 1   
    40    19    20 1   
    41    19    25 1   
    42    19    26 1   
    43    20    21 1   
    44    20    24 1   
    45    20    51 1   
    46    21    22 1   
    47    21    52 1   
    48    21    53 1   
    49    22    23 1   
    50    22    54 1   
    51    22    55 1   
    52    23    24 1   
    53    23    56 1   
    54    23    57 1   
    55    24    58 1   
    56    24    59 1   
    57    25    60 1   
    58    25    61 1   
    59    25    67 1   
    60    26    27 ar  
    61    26    31 ar  
    62    27    28 ar  
    63    27    62 1   
    64    28    29 ar  
    65    28    63 1   
    66    29    30 ar  
    67    29    64 1   
    68    30    31 ar  
    69    30    65 1   
    70    31    66 1   
@<TRIPOS>SUBSTRUCTURE
     1 2SF         1 TEMP              0 ****  ****    0 ROOT
