@<TRIPOS>MOLECULE
molecule
   56    59     1     0     0
SMALL
bcc


@<TRIPOS>ATOM
      1 C4           0.0000     0.0000     0.0000 ca         1 2SH      -0.015600
      2 C5           1.3830     0.0000     0.0000 ca         1 2SH      -0.089000
      3 C6           2.0750     0.0000     1.1970 ca         1 2SH      -0.104300
      4 C7           3.5830    -0.0000     1.1950 c3         1 2SH       0.190000
      5 C15          7.1570    -2.7160     3.1310 c3         1 2SH       0.123000
      6 C17          7.1700    -2.0990     5.5490 ca         1 2SH      -0.381900
      7 C20          5.8750    -2.1180     7.8960 ca         1 2SH       0.944900
      8 C22          5.8030    -2.2730     5.5950 ca         1 2SH       0.492600
      9 C26          5.0110    -1.3870    11.4320 c3         1 2SH      -0.134400
     10 C1           1.3850    -0.0000     2.3950 ca         1 2SH      -0.078000
     11 C2           0.0040    -0.0010     2.3980 ca         1 2SH      -0.161000
     12 C3          -0.6910    -0.0010     1.2010 ca         1 2SH       0.144900
     13 C9           4.0920     1.4200     1.4460 c3         1 2SH       0.125400
     14 O10          3.5240     1.9240     2.6560 oh         1 2SH      -0.615800
     15 N11          4.0710    -0.8890     2.2520 ns         1 2SH      -0.595900
     16 C12          5.2930    -1.4490     2.1500 c          1 2SH       0.795100
     17 O13          5.9520    -1.2910     1.1400 o          1 2SH      -0.664100
     18 N14          5.7850    -2.1820     3.1670 n          1 2SH      -0.510800
     19 C16          7.9490    -2.0630     4.2640 c3         1 2SH      -0.042100
     20 C18          7.8590    -1.9430     6.7470 ca         1 2SH       0.500200
     21 N19          7.1900    -1.9590     7.8870 nb         1 2SH      -0.796000
     22 N21          5.1910    -2.2720     6.7730 nb         1 2SH      -0.806000
     23 C23          4.9750    -2.4800     4.3540 c3         1 2SH       0.058700
     24 C25          5.9430    -1.9570    10.3580 c3         1 2SH       0.251500
     25 C27          5.7730    -1.2890    12.7560 c3         1 2SH       0.140900
     26 O28          6.2660    -2.5810    13.1170 os         1 2SH      -0.422600
     27 C29          7.1780    -3.1430    12.1720 c3         1 2SH       0.140900
     28 C30          6.4730    -3.3150    10.8250 c3         1 2SH      -0.134400
     29 Cl1         -0.8680     0.0080    -1.5030 cl         1 2SH      -0.084400
     30 F32         -2.0420    -0.0000     1.2030 f          1 2SH      -0.126900
     31 H1           1.9250     0.0000    -0.9380 ha         1 2SH       0.152000
     32 H2           3.9430    -0.3480     0.2340 h1         1 2SH       0.095700
     33 H3           7.6140    -2.4550     2.1840 h1         1 2SH       0.069700
     34 H4           7.1240    -3.7870     3.2930 h1         1 2SH       0.069700
     35 H6           4.6770    -0.4010    11.1330 hc         1 2SH       0.058450
     36 H7           1.9280    -0.0010     3.3320 ha         1 2SH       0.149000
     37 H8          -0.5360    -0.0020     3.3380 ha         1 2SH       0.153000
     38 H9           5.1720     1.4060     1.5330 h1         1 2SH       0.038200
     39 H10          3.8050     2.0580     0.6190 h1         1 2SH       0.038200
     40 H11          3.8540     2.7920     2.8200 ho         1 2SH       0.406000
     41 H12          3.4790    -1.1190     3.0250 hn         1 2SH       0.321500
     42 H13          8.8700    -2.6170     4.4030 hc         1 2SH       0.059700
     43 H14          8.1340    -1.0290     4.0020 hc         1 2SH       0.059700
     44 H15          8.9340    -1.8120     6.7460 h4         1 2SH       0.030100
     45 H16          4.1180    -1.8170     4.3800 h1         1 2SH       0.068700
     46 H17          4.6400    -3.5090     4.3120 h1         1 2SH       0.068700
     47 H19          6.7740    -1.2790    10.2050 h1         1 2SH       0.079700
     48 H20          5.1060    -0.9280    13.5300 h1         1 2SH       0.049950
     49 H21          6.6060    -0.6050    12.6430 h1         1 2SH       0.049950
     50 H22          8.0270    -2.4800    12.0530 h1         1 2SH       0.049950
     51 H23          7.5160    -4.1090    12.5280 h1         1 2SH       0.049950
     52 H24          5.6460    -4.0070    10.9360 hc         1 2SH       0.058450
     53 H25          7.1770    -3.6980    10.0960 hc         1 2SH       0.058450
     54 N24          5.2020    -2.1250     9.1050 nu         1 2SH      -0.893900
     55 H5           4.1580    -2.0430    11.5540 hc         1 2SH       0.058450
     56 H18          4.2070    -2.2350     9.1230 hn         1 2SH       0.457800
@<TRIPOS>BOND
     1    26    27 1   
     2    26    25 1   
     3    27    28 1   
     4    25     9 1   
     5    14    13 1   
     6    28    24 1   
     7    13     4 1   
     8     9    24 1   
     9    24    54 1   
    10    29     1 1   
    11     4     3 1   
    12     4    15 1   
    13     2     3 ar  
    14     2     1 ar  
    15     3    10 ar  
    16    54     7 1   
    17     1    12 ar  
    18    15    16 1   
    19    22     7 ar  
    20    22     8 ar  
    21     7    21 ar  
    22    10    11 ar  
    23    23     8 1   
    24    23    18 1   
    25    12    11 ar  
    26    12    30 1   
    27     8     6 ar  
    28    16    18 1   
    29    16    17 2   
    30    18     5 1   
    31    21    20 ar  
    32     6    20 ar  
    33     6    19 1   
    34     5    19 1   
    35     2    31 1   
    36     4    32 1   
    37     5    33 1   
    38     5    34 1   
    39     9    55 1   
    40     9    35 1   
    41    10    36 1   
    42    11    37 1   
    43    13    38 1   
    44    13    39 1   
    45    14    40 1   
    46    15    41 1   
    47    19    42 1   
    48    19    43 1   
    49    20    44 1   
    50    23    45 1   
    51    23    46 1   
    52    54    56 1   
    53    24    47 1   
    54    25    48 1   
    55    25    49 1   
    56    27    50 1   
    57    27    51 1   
    58    28    52 1   
    59    28    53 1   
@<TRIPOS>SUBSTRUCTURE
     1 2SH         1 TEMP              0 ****  ****    0 ROOT
