@<TRIPOS>MOLECULE
molecule
   51    53     1     0     0
SMALL
bcc


@<TRIPOS>ATOM
      1 O4           0.0000     0.0000     0.0000 o          1 2SJ      -0.603100
      2 C12          1.2130     0.0000     0.0000 c          1 2SJ       0.659100
      3 C13          1.9650     0.0000     1.3060 c3         1 2SJ      -0.168100
      4 N1           1.8870    -0.0060    -1.1670 ns         1 2SJ      -0.589900
      5 C11          1.1550    -0.0120    -2.4350 c3         1 2SJ       0.143900
      6 C14          0.7510    -1.4350    -2.7660 cc         1 2SJ      -0.012200
      7 C15          1.4430    -2.4090    -2.1500 cd         1 2SJ      -0.217200
      8 C10          2.0330     0.5880    -3.5150 c3         1 2SJ      -0.084400
      9 C9           1.4790     0.2870    -4.9040 c3         1 2SJ      -0.033100
     10 C8          -0.0100     0.5120    -4.9170 ca         1 2SJ      -0.032300
     11 C7          -0.5350     1.6430    -5.5080 ca         1 2SJ      -0.221000
     12 C5          -1.9100     1.8410    -5.5310 ca         1 2SJ       0.142100
     13 C3          -2.7650     0.9040    -4.9600 ca         1 2SJ       0.056100
     14 C1          -2.2430    -0.2350    -4.3610 ca         1 2SJ       0.150100
     15 O1          -3.0710    -1.1570    -3.8030 os         1 2SJ      -0.353900
     16 C2          -3.4920    -0.9210    -2.4580 c3         1 2SJ       0.139700
     17 O2          -4.1110     1.1030    -4.9890 os         1 2SJ      -0.332900
     18 C4          -4.8180     0.5860    -6.1190 c3         1 2SJ       0.138700
     19 O3          -2.4230     2.9580    -6.1110 os         1 2SJ      -0.309900
     20 C6          -1.4900     3.8810    -6.6770 c3         1 2SJ       0.125700
     21 C22         -0.8580    -0.4250    -4.3370 ca         1 2SJ      -0.117800
     22 C21         -0.2890    -1.6360    -3.6730 cc         1 2SJ       0.003800
     23 C20         -0.8390    -2.8440    -4.0180 cd         1 2SJ      -0.079000
     24 C19         -0.5560    -4.1110    -3.6640 cd         1 2SJ      -0.127000
     25 C17          0.4270    -4.5670    -2.8400 cc         1 2SJ       0.048900
     26 C16          1.3550    -3.7720    -2.1770 c          1 2SJ       0.538500
     27 O5           2.2040    -4.3730    -1.5320 o          1 2SJ      -0.574100
     28 O6           0.5070    -5.9070    -2.6520 oh         1 2SJ      -0.500100
     29 H1           2.1240     1.0210     1.6310 hc         1 2SJ       0.062700
     30 H2           2.9220    -0.4890     1.1720 hc         1 2SJ       0.062700
     31 H3           1.3890    -0.5320     2.0540 hc         1 2SJ       0.062700
     32 H4           2.8870     0.0400    -1.1670 hn         1 2SJ       0.316500
     33 H5           0.2610     0.5920    -2.3350 h1         1 2SJ       0.098700
     34 H6           2.2290    -2.0390    -1.5020 ha         1 2SJ       0.151000
     35 H7           2.0560     1.6630    -3.3810 hc         1 2SJ       0.054200
     36 H8           3.0210     0.1500    -3.4370 hc         1 2SJ       0.054200
     37 H9           1.9390     0.9610    -5.6160 hc         1 2SJ       0.060700
     38 H10          1.6760    -0.7520    -5.1400 hc         1 2SJ       0.060700
     39 H11          0.1250     2.3770    -5.9540 ha         1 2SJ       0.143000
     40 H12         -3.1000    -1.7000    -1.8150 h1         1 2SJ       0.045033
     41 H13         -4.5740    -0.9250    -2.4120 h1         1 2SJ       0.045033
     42 H14         -3.1200     0.0410    -2.1270 h1         1 2SJ       0.045033
     43 H15         -5.2390     1.4060    -6.6870 h1         1 2SJ       0.036700
     44 H16         -5.6160    -0.0640    -5.7780 h1         1 2SJ       0.036700
     45 H17         -4.1370     0.0240    -6.7450 h1         1 2SJ       0.036700
     46 H18         -0.8310     4.2500    -5.9010 h1         1 2SJ       0.043033
     47 H19         -0.9050     3.3810    -7.4400 h1         1 2SJ       0.043033
     48 H20         -2.0270     4.7110    -7.1200 h1         1 2SJ       0.043033
     49 H21         -1.6650    -2.7620    -4.7140 ha         1 2SJ       0.144000
     50 H22         -1.1980    -4.8720    -4.0930 ha         1 2SJ       0.138000
     51 H23          0.9350    -6.3030    -3.3920 ho         1 2SJ       0.425000
@<TRIPOS>BOND
     1    16    15 1
     2    28    25 1
     3    18    17 1
     4    15    14 1
     5     3     2 1
     6    25    24 2
     7    25    26 1
     8    24    23 1
     9    27    26 2
    10    17    13 1
    11    26     7 1
    12    23    22 2
    13     1     2 2
    14     2     4 1
    15    14    13 ar
    16    14    21 ar
    17     7     6 2
    18    13    12 ar
    19    22     6 1
    20    22    21 1
    21     6     5 1
    22    21    10 ar
    23     4     5 1
    24     5     8 1
    25    12    19 1
    26    12    11 ar
    27    19    20 1
    28    10    11 ar
    29    10     9 1
    30     8     9 1
    31     3    29 1
    32     3    30 1
    33     3    31 1
    34     4    32 1
    35     5    33 1
    36     7    34 1
    37     8    35 1
    38     8    36 1
    39     9    37 1
    40     9    38 1
    41    11    39 1
    42    16    40 1
    43    16    41 1
    44    16    42 1
    45    18    43 1
    46    18    44 1
    47    18    45 1
    48    20    46 1
    49    20    47 1
    50    20    48 1
    51    23    49 1
    52    24    50 1
    53    28    51 1
@<TRIPOS>SUBSTRUCTURE
     1 2SJ         1 TEMP              0 ****  ****    0 ROOT
