@<TRIPOS>MOLECULE
2SK
   37    38     1     0     0
SMALL
bcc


@<TRIPOS>ATOM
      1 C5           0.0000     0.0000     0.0000 c3         1 2SK       0.125500
      2 N5          -0.5140     0.5420    -1.2640 n7         1 2SK      -0.543200
      3 C4           1.5490     0.0000     0.0000 c3         1 2SK       0.183100
      4 O4           2.0590     1.1740    -0.6350 oh         1 2SK      -0.529800
      5 C3           1.8920     0.0000     1.5110 c3         1 2SK       0.135100
      6 O3           3.2010     0.5310     1.7300 oh         1 2SK      -0.548800
      7 C2           0.8250     0.9190     2.1400 c3         1 2SK       0.179100
      8 O2           1.3400     2.2450     2.2790 oh         1 2SK      -0.547800
      9 C1          -0.3780     0.9190     1.1800 c3         1 2SK       0.036400
     10 S6          -1.8470     0.2720     2.0260 ss         1 2SK      -0.410200
     11 C7          -2.1190     1.5930     3.2390 c3         1 2SK       0.113000
     12 C8          -0.5810    -0.5800    -2.2100 c3         1 2SK       0.191100
     13 C9          -1.1030    -0.0890    -3.5360 ca         1 2SK      -0.096300
     14 C14         -0.2240     0.3680    -4.4990 ca         1 2SK      -0.086500
     15 C13         -0.7040     0.8180    -5.7150 ca         1 2SK      -0.102500
     16 C10         -2.4620    -0.1030    -3.7910 ca         1 2SK      -0.086500
     17 C11         -2.9410     0.3500    -5.0050 ca         1 2SK      -0.102500
     18 C12         -2.0630     0.8100    -5.9680 ca         1 2SK      -0.100000
     19 H5          -0.3760    -1.0020     0.1690 h1         1 2SK       0.032700
     20 HN5         -1.4330     0.9120    -1.1200 hn         1 2SK       0.265800
     21 H4           1.9300    -0.8960    -0.4760 h1         1 2SK      -0.001300
     22 HO4          2.8570     0.9650    -1.0900 ho         1 2SK       0.382000
     23 H3           1.8110    -1.0020     1.9150 h1         1 2SK       0.009700
     24 HO3          3.7430    -0.1270     2.1330 ho         1 2SK       0.376000
     25 H2           0.5260     0.5300     3.1060 h1         1 2SK       0.013700
     26 HO2          1.5370     2.4130     3.1850 ho         1 2SK       0.383000
     27 H1          -0.5640     1.9240     0.8210 h1         1 2SK       0.090700
     28 H71         -1.8540     2.5470     2.7990 h1         1 2SK       0.034367
     29 H72         -3.1620     1.6060     3.5300 h1         1 2SK       0.034367
     30 H73         -1.5020     1.4150     4.1120 h1         1 2SK       0.034367
     31 H81          0.4090    -0.9980    -2.3440 h1         1 2SK       0.009700
     32 H82         -1.2450    -1.3410    -1.8200 h1         1 2SK       0.009700
     33 H14          0.8410     0.3740    -4.3010 ha         1 2SK       0.105000
     34 H13         -0.0140     1.1770    -6.4700 ha         1 2SK       0.101500
     35 H10         -3.1510    -0.4630    -3.0360 ha         1 2SK       0.105000
     36 H11         -4.0060     0.3420    -5.2040 ha         1 2SK       0.101500
     37 H12         -2.4390     1.1630    -6.9200 ha         1 2SK       0.101000
@<TRIPOS>BOND
     1     1     2 1   
     2     1     3 1   
     3     1     9 1   
     4     1    19 1   
     5     2    12 1   
     6     2    20 1   
     7     3     4 1   
     8     3     5 1   
     9     3    21 1   
    10     4    22 1   
    11     5     6 1   
    12     5     7 1   
    13     5    23 1   
    14     6    24 1   
    15     7     8 1   
    16     7     9 1   
    17     7    25 1   
    18     8    26 1   
    19     9    10 1   
    20     9    27 1   
    21    10    11 1   
    22    11    28 1   
    23    11    29 1   
    24    11    30 1   
    25    12    13 1   
    26    12    31 1   
    27    12    32 1   
    28    13    14 ar  
    29    13    16 ar  
    30    14    15 ar  
    31    14    33 1   
    32    15    18 ar  
    33    15    34 1   
    34    16    17 ar  
    35    16    35 1   
    36    17    18 ar  
    37    17    36 1   
    38    18    37 1   
@<TRIPOS>SUBSTRUCTURE
     1 2SK         1 TEMP              0 ****  ****    0 ROOT
