@<TRIPOS>MOLECULE
2SM
   38    39     1     0     0
SMALL
bcc


@<TRIPOS>ATOM
      1 C24          0.0000     0.0000     0.0000 c3         1 2SM       0.273700
      2 O23          1.4520     0.0000     0.0000 os         1 2SM      -0.410900
      3 C22          2.0640     0.0000     1.1990 c          1 2SM       0.718700
      4 O25          1.4060    -0.0950     2.2170 o          1 2SM      -0.590000
      5 C4           3.5340     0.1150     1.2790 ca         1 2SM      -0.066600
      6 C3           4.3040     0.0890     0.1150 ca         1 2SM      -0.080000
      7 C2           5.6760     0.1970     0.1960 ca         1 2SM      -0.068000
      8 C1           6.2910     0.3310     1.4280 ca         1 2SM      -0.097000
      9 C6           5.5350     0.3580     2.5870 ca         1 2SM       0.016000
     10 C5           4.1610     0.2570     2.5190 ca         1 2SM      -0.086500
     11 S7           3.1980     0.2990     3.9950 sy         1 2SM       1.063900
     12 O18          4.1220     0.3290     5.0750 o          1 2SM      -0.564800
     13 O17          2.2030     1.2920     3.7960 o          1 2SM      -0.564800
     14 N8           2.4000    -1.1480     4.1020 ns         1 2SM      -0.298300
     15 C9           3.0970    -2.2940     4.2370 c          1 2SM       0.603100
     16 O20          4.3050    -2.2580     4.3720 o          1 2SM      -0.610100
     17 N10          2.4560    -3.4790     4.2210 ns         1 2SM      -0.103400
     18 C11          3.1580    -4.6520     4.4630 ca         1 2SM       0.584900
     19 N12          2.5360    -5.8150     4.3430 nb         1 2SM      -0.670000
     20 C13          3.1760    -6.9510     4.5650 ca         1 2SM       0.439600
     21 C28          2.4600    -8.2700     4.4260 c3         1 2SM      -0.041400
     22 C14          4.5130    -6.9130     4.9290 ca         1 2SM      -0.387600
     23 C15          5.1330    -5.6800     5.0450 ca         1 2SM       0.473200
     24 N16          4.4360    -4.5820     4.8030 nb         1 2SM      -0.601000
     25 H24         -0.3610     0.0270    -1.0210 h1         1 2SM       0.002700
     26 H24A        -0.3610     0.8710     0.5330 h1         1 2SM       0.002700
     27 H24B        -0.3610    -0.8970     0.4870 h1         1 2SM       0.002700
     28 H3           3.8240    -0.0160    -0.8510 ha         1 2SM       0.119000
     29 H2           6.2750     0.1760    -0.7070 ha         1 2SM       0.106000
     30 H1           7.3690     0.4130     1.4870 ha         1 2SM       0.110000
     31 H6           6.0220     0.4650     3.5490 ha         1 2SM       0.142000
     32 HN8          1.4000    -1.1660     4.1230 hn         1 2SM       0.244500
     33 HN10         1.4690    -3.5110     4.0590 hn         1 2SM       0.174500
     34 H28          3.0020    -8.9030     3.7340 hc         1 2SM       0.016700
     35 H28A         1.4590    -8.0990     4.0490 hc         1 2SM       0.016700
     36 H28B         2.4050    -8.7550     5.3930 hc         1 2SM       0.016700
     37 H14          5.0610    -7.8290     5.1190 ha         1 2SM       0.126000
     38 H15          6.1780    -5.6150     5.3250 h4         1 2SM      -0.013900
@<TRIPOS>BOND
     1     1     2 1   
     2     1    25 1   
     3     1    26 1   
     4     1    27 1   
     5     2     3 1   
     6     3     4 2   
     7     3     5 1   
     8     5     6 ar  
     9     5    10 ar  
    10     6     7 ar  
    11     6    28 1   
    12     7     8 ar  
    13     7    29 1   
    14     8     9 ar  
    15     8    30 1   
    16     9    10 ar  
    17     9    31 1   
    18    10    11 1   
    19    11    12 2   
    20    11    13 2   
    21    11    14 1   
    22    14    15 1   
    23    14    32 1   
    24    15    16 2   
    25    15    17 1   
    26    17    18 1   
    27    17    33 1   
    28    18    19 ar  
    29    18    24 ar  
    30    19    20 ar  
    31    20    21 1   
    32    20    22 ar  
    33    21    34 1   
    34    21    35 1   
    35    21    36 1   
    36    22    23 ar  
    37    22    37 1   
    38    23    24 ar  
    39    23    38 1   
@<TRIPOS>SUBSTRUCTURE
     1 2SM         1 TEMP              0 ****  ****    0 ROOT
