@<TRIPOS>MOLECULE
molecule
   45    47     1     0     0
SMALL
bcc


@<TRIPOS>ATOM
      1 C26          0.0000     0.0000     0.0000 c3         1 2SN       0.151100
      2 N24          1.4690     0.0000     0.0000 n3         1 2SN      -0.725600
      3 C25          1.9960     0.0000     1.3710 c3         1 2SN       0.151100
      4 C23          1.9950    -1.1380    -0.7670 c3         1 2SN       0.207100
      5 C16          4.3570    -1.4930    -0.0210 ca         1 2SN      -0.205000
      6 C15          3.4820    -0.9730    -0.9550 ca         1 2SN      -0.035300
      7 C14          3.9670    -0.3010    -2.0600 ca         1 2SN      -0.165000
      8 C13          5.3300    -0.1470    -2.2370 ca         1 2SN      -0.085000
      9 C12          6.2110    -0.6640    -1.3080 ca         1 2SN      -0.209000
     10 C11          5.7260    -1.3400    -0.1950 ca         1 2SN       0.202600
     11 N22          6.6140    -1.8660     0.7470 nu         1 2SN      -0.828600
     12 C21          8.0580    -1.7040     0.5620 c3         1 2SN       0.285100
     13 C10          9.8300    -4.2800     2.6790 ca         1 2SN       0.471600
     14 C09          9.1490    -3.6650     1.6140 ca         1 2SN      -0.168300
     15 C08          8.7870    -2.3550     1.7080 ca         1 2SN      -0.090300
     16 C07          9.0810    -1.6100     2.8470 ca         1 2SN      -0.140000
     17 C06          9.7390    -2.1730     3.8990 ca         1 2SN      -0.092000
     18 C05         10.1270    -3.5190     3.8360 ca         1 2SN      -0.202300
     19 C04         10.8090    -4.1360     4.9050 ca         1 2SN      -0.044000
     20 C03         11.1560    -5.4470     4.7790 ca         1 2SN      -0.299300
     21 C02         10.8330    -6.1460     3.6070 ca         1 2SN       0.714200
     22 N02         11.1930    -7.4810     3.4930 nv         1 2SN      -1.008500
     23 N01         10.1910    -5.5660     2.6150 nb         1 2SN      -0.772000
     24 H261        -0.3610     0.0140    -1.0210 h1         1 2SN       0.031867
     25 H262        -0.3610    -0.8910     0.4980 h1         1 2SN       0.031867
     26 H263        -0.3610     0.8770     0.5230 h1         1 2SN       0.031867
     27 H251         1.3390     0.5770     2.0100 h1         1 2SN       0.031867
     28 H252         2.9850     0.4410     1.3770 h1         1 2SN       0.031867
     29 H253         2.0520    -1.0180     1.7360 h1         1 2SN       0.031867
     30 H231         1.5110    -1.1750    -1.7350 h1         1 2SN       0.038700
     31 H232         1.7990    -2.0570    -0.2290 h1         1 2SN       0.038700
     32 H14          3.2780     0.1060    -2.7910 ha         1 2SN       0.131000
     33 H13          5.7070     0.3800    -3.1050 ha         1 2SN       0.127000
     34 H12          7.2790    -0.5440    -1.4460 ha         1 2SN       0.129000
     35 H22          6.2640    -2.3740     1.5350 hn         1 2SN       0.441800
     36 H211         8.3020    -0.6490     0.5330 h1         1 2SN       0.044700
     37 H212         8.3580    -2.1700    -0.3680 h1         1 2SN       0.044700
     38 H09          8.9950    -4.2040     0.6870 ha         1 2SN       0.152000
     39 H07          8.7840    -0.5700     2.8970 ha         1 2SN       0.135000
     40 H06          9.9620    -1.5830     4.7800 ha         1 2SN       0.132000
     41 H04         11.0510    -3.5810     5.8040 ha         1 2SN       0.139000
     42 H03         11.7280    -5.9330     5.5600 ha         1 2SN       0.134000
     43 H021        11.6780    -7.9340     4.2420 hn         1 2SN       0.440800
     44 H022        10.9670    -7.9910     2.6630 hn         1 2SN       0.440800
     45 H16          3.9750    -2.0190     0.8450 ha         1 2SN       0.127000
@<TRIPOS>BOND
     1     1     2 1
     2     2     3 1
     3     2     4 1
     4     4     6 1
     5     5     6 ar
     6     5    10 ar
     7     6     7 ar
     8     7     8 ar
     9     8     9 ar
    10     9    10 ar
    11    10    11 1
    12    11    12 1
    13    12    15 1
    14    13    14 ar
    15    13    18 ar
    16    13    23 ar
    17    14    15 ar
    18    15    16 ar
    19    16    17 ar
    20    17    18 ar
    21    18    19 ar
    22    19    20 ar
    23    20    21 ar
    24    21    22 1
    25    21    23 ar
    26     1    24 1
    27     1    25 1
    28     1    26 1
    29     3    27 1
    30     3    28 1
    31     3    29 1
    32     4    30 1
    33     4    31 1
    34     5    45 1
    35     7    32 1
    36     8    33 1
    37     9    34 1
    38    11    35 1
    39    12    36 1
    40    12    37 1
    41    14    38 1
    42    16    39 1
    43    17    40 1
    44    19    41 1
    45    20    42 1
    46    22    43 1
    47    22    44 1
@<TRIPOS>SUBSTRUCTURE
     1 2SN         1 TEMP              0 ****  ****    0 ROOT
