@<TRIPOS>MOLECULE
2SP
  123   122     1     0     0
SMALL
bcc


@<TRIPOS>ATOM
      1 O1P        -0.6200    2.2070   -2.9700 o         1 2SP     -0.915167
      2 P          -0.2270    1.2510   -1.8650 p5        1 2SP      1.323900
      3 O2P        -0.1650    1.8240   -0.4790 o         1 2SP     -0.915167
      4 O4P        -0.7500   -0.1490   -1.9740 o         1 2SP     -0.915167
      5 O3P         1.4580    1.0570   -2.2830 os        1 2SP     -0.564200
      6 C1          2.2640    0.6470   -1.2650 c3        1 2SP      0.234400
      7 C2          3.6300    1.3860   -1.2390 c3        1 2SP      0.091100
      8 O2          3.3760    2.6640   -0.6250 os        1 2SP     -0.348900
      9 C31         4.3920    3.3220   -0.0350 c         1 2SP      0.630100
     10 O31         5.5300    2.8290    0.0320 o         1 2SP     -0.623000
     11 C32         3.9530    4.6570    0.4990 c3        1 2SP     -0.139400
     12 C33         4.6970    5.0130    1.7670 c3        1 2SP     -0.074400
     13 C34         4.3410    6.4100    2.2280 c3        1 2SP     -0.079400
     14 C35         5.0660    6.7660    3.5080 c3        1 2SP     -0.077400
     15 C36         4.7140    8.1640    3.9700 c3        1 2SP     -0.079400
     16 C37         5.4400    8.5200    5.2500 c3        1 2SP     -0.078400
     17 C38         5.0880    9.9180    5.7130 c3        1 2SP     -0.079400
     18 C39         5.8150   10.2740    6.9920 c3        1 2SP     -0.078400
     19 C40         5.4640   11.6720    7.4540 c3        1 2SP     -0.079400
     20 C41         6.1920   12.0280    8.7320 c3        1 2SP     -0.078400
     21 C42         5.8400   13.4250    9.1950 c3        1 2SP     -0.079400
     22 C43         6.5690   13.7820   10.4730 c3        1 2SP     -0.078400
     23 C44         6.2180   15.1800   10.9350 c3        1 2SP     -0.079400
     24 C45         6.9470   15.5360   12.2130 c3        1 2SP     -0.079400
     25 C46         6.5960   16.9330   12.6750 c3        1 2SP     -0.079400
     26 C47         7.3240   17.2910   13.9540 c3        1 2SP     -0.080400
     27 C48         6.9780   18.6820   14.4180 c3        1 2SP     -0.092100
     28 C3          4.2790    1.5730   -2.6090 c3        1 2SP      0.144400
     29 O3          3.6800    2.6670   -3.2960 os        1 2SP     -0.457900
     30 C11         2.9450    2.3680   -4.4310 c         1 2SP      0.697100
     31 O11         3.4280    1.5120   -5.1850 o         1 2SP     -0.614000
     32 C12         1.7110    3.1730   -4.5470 c3        1 2SP     -0.218400
     33 C13         1.1040    3.1560   -5.9280 c3        1 2SP     -0.037400
     34 C14        -0.3590    3.5410   -5.8430 c3        1 2SP     -0.115400
     35 C15        -1.0810    3.2730   -7.1450 c3        1 2SP     -0.064400
     36 C16        -2.5500    3.6200   -7.0300 c3        1 2SP     -0.082400
     37 C17        -3.2970    3.3090   -8.3100 c3        1 2SP     -0.076400
     38 C18        -4.7670    3.6480   -8.1870 c3        1 2SP     -0.080400
     39 C19        -5.5170    3.3290   -9.4620 c3        1 2SP     -0.077400
     40 C20        -6.9880    3.6630   -9.3350 c3        1 2SP     -0.079400
     41 C21        -7.7400    3.3410  -10.6080 c3        1 2SP     -0.078400
     42 C22        -9.2110    3.6730  -10.4790 c3        1 2SP     -0.079400
     43 C23        -9.9630    3.3490  -11.7520 c3        1 2SP     -0.078400
     44 C24       -11.4340    3.6780  -11.6220 c3        1 2SP     -0.079400
     45 C25       -12.1870    3.3530  -12.8940 c3        1 2SP     -0.078400
     46 C26       -13.6580    3.6810  -12.7630 c3        1 2SP     -0.079400
     47 C27       -14.4120    3.3560  -14.0350 c3        1 2SP     -0.080400
     48 C28       -15.8780    3.6820  -13.9090 c3        1 2SP     -0.091100
     49 H11         1.7630    0.7970   -0.2640 h1        1 2SP      0.012700
     50 H12         2.5600   -0.4410   -1.3920 h1        1 2SP      0.012700
     51 H2          4.3500    0.8130   -0.5890 h1        1 2SP      0.023700
     52 H321        2.8440    4.6290    0.6790 hc        1 2SP      0.084200
     53 H322        4.1490    5.4170   -0.3020 hc        1 2SP      0.084200
     54 H331        5.8020    4.9360    1.5860 hc        1 2SP      0.047200
     55 H332        4.4410    4.2730    2.5700 hc        1 2SP      0.047200
     56 H341        3.2320    6.4790    2.3900 hc        1 2SP      0.040700
     57 H342        4.6050    7.1500    1.4280 hc        1 2SP      0.040700
     58 H351        6.1730    6.6900    3.3460 hc        1 2SP      0.036700
     59 H352        4.7980    6.0270    4.3090 hc        1 2SP      0.036700
     60 H361        4.9800    8.9030    3.1690 hc        1 2SP      0.039200
     61 H362        3.6070    8.2380    4.1320 hc        1 2SP      0.039200
     62 H371        6.5470    8.4450    5.0880 hc        1 2SP      0.037200
     63 H372        5.1730    7.7810    6.0510 hc        1 2SP      0.037200
     64 H381        3.9810    9.9920    5.8760 hc        1 2SP      0.039200
     65 H382        5.3540   10.6560    4.9110 hc        1 2SP      0.039200
     66 H391        5.5490    9.5350    7.7930 hc        1 2SP      0.037700
     67 H392        6.9230   10.1990    6.8280 hc        1 2SP      0.037700
     68 H401        4.3560   11.7450    7.6190 hc        1 2SP      0.038700
     69 H402        5.7280   12.4100    6.6520 hc        1 2SP      0.038700
     70 H411        7.2990   11.9530    8.5680 hc        1 2SP      0.038200
     71 H412        5.9270   11.2890    9.5340 hc        1 2SP      0.038200
     72 H421        6.1050   14.1640    8.3930 hc        1 2SP      0.039200
     73 H422        4.7330   13.4990    9.3600 hc        1 2SP      0.039200
     74 H431        7.6760   13.7070   10.3080 hc        1 2SP      0.038200
     75 H432        6.3050   13.0430   11.2750 hc        1 2SP      0.038200
     76 H441        5.1110   15.2540   11.1010 hc        1 2SP      0.039200
     77 H442        6.4820   15.9180   10.1330 hc        1 2SP      0.039200
     78 H451        8.0540   15.4610   12.0470 hc        1 2SP      0.038700
     79 H452        6.6830   14.7970   13.0150 hc        1 2SP      0.038700
     80 H461        5.4890   17.0080   12.8410 hc        1 2SP      0.039200
     81 H462        6.8600   17.6720   11.8740 hc        1 2SP      0.039200
     82 H471        7.0600   16.5500   14.7540 hc        1 2SP      0.037700
     83 H472        8.4310   17.2140   13.7860 hc        1 2SP      0.037700
     84 H481        7.5250   18.9250   15.3600 hc        1 2SP      0.030700
     85 H482        7.2560   19.4370   13.6430 hc        1 2SP      0.030700
     86 H483        5.8810   18.7710   14.6130 hc        1 2SP      0.030700
     87 H31         5.3600    1.8570   -2.4890 h1        1 2SP      0.042700
     88 H32         4.1830    0.6210   -3.1930 h1        1 2SP      0.042700
     89 H121        1.8850    4.2140   -4.1820 hc        1 2SP      0.152700
     90 H122        0.9540    2.6850   -3.7870 hc        1 2SP      0.152700
     91 H131        1.2000    2.1250   -6.3600 hc        1 2SP      0.013200
     92 H132        1.6510    3.8560   -6.6150 hc        1 2SP      0.013200
     93 H141       -0.8330    2.9550   -4.9920 hc        1 2SP      0.090200
     94 H142       -0.4480    4.6270   -5.5810 hc        1 2SP      0.090200
     95 H151       -0.9740    2.1890   -7.4130 hc        1 2SP      0.016700
     96 H152       -0.6170    3.8670   -7.9770 hc        1 2SP      0.016700
     97 H161       -2.6620    4.7090   -6.7850 hc        1 2SP      0.048700
     98 H162       -2.9970    3.0420   -6.1770 hc        1 2SP      0.048700
     99 H171       -3.1830    2.2200   -8.5530 hc        1 2SP      0.028700
    100 H172       -2.8480    3.8860   -9.1610 hc        1 2SP      0.028700
    101 H181       -4.8820    4.7380   -7.9450 hc        1 2SP      0.040700
    102 H182       -5.2120    3.0720   -7.3320 hc        1 2SP      0.040700
    103 H191       -5.0730    3.9050  -10.3150 hc        1 2SP      0.033700
    104 H192       -5.4000    2.2390   -9.7030 hc        1 2SP      0.033700
    105 H201       -7.1060    4.7530   -9.0940 hc        1 2SP      0.039700
    106 H202       -7.4310    3.0870   -8.4800 hc        1 2SP      0.039700
    107 H211       -7.2970    3.9180  -11.4630 hc        1 2SP      0.036200
    108 H212       -7.6200    2.2520  -10.8490 hc        1 2SP      0.036200
    109 H221       -9.6520    3.0950   -9.6240 hc        1 2SP      0.039700
    110 H222       -9.3310    4.7620  -10.2390 hc        1 2SP      0.039700
    111 H231       -9.5220    3.9260  -12.6070 hc        1 2SP      0.037200
    112 H232       -9.8410    2.2590  -11.9930 hc        1 2SP      0.037200
    113 H241      -11.8740    3.1000  -10.7670 hc        1 2SP      0.039200
    114 H242      -11.5560    4.7670  -11.3810 hc        1 2SP      0.039200
    115 H251      -12.0640    2.2640  -13.1350 hc        1 2SP      0.037700
    116 H252      -11.7470    3.9310  -13.7490 hc        1 2SP      0.037700
    117 H261      -13.7800    4.7700  -12.5220 hc        1 2SP      0.039200
    118 H262      -14.0980    3.1030  -11.9080 hc        1 2SP      0.039200
    119 H271      -13.9700    3.9340  -14.8890 hc        1 2SP      0.037200
    120 H272      -14.2870    2.2670  -14.2750 hc        1 2SP      0.037200
    121 H281      -16.0230    4.7680  -13.6940 hc        1 2SP      0.029700
    122 H282      -16.4140    3.4350  -14.8570 hc        1 2SP      0.029700
    123 H283      -16.3410    3.0960  -13.0790 hc        1 2SP      0.029700
@<TRIPOS>BOND
     1    1    2 1   
     2    2    3 1   
     3    2    4 1   
     4    2    5 1   
     5    5    6 1   
     6    6    7 1   
     7    6   49 1   
     8    6   50 1   
     9    7    8 1   
    10    7   28 1   
    11    7   51 1   
    12    8    9 1   
    13    9   10 2   
    14    9   11 1   
    15   11   12 1   
    16   11   52 1   
    17   11   53 1   
    18   12   13 1   
    19   12   54 1   
    20   12   55 1   
    21   13   14 1   
    22   13   56 1   
    23   13   57 1   
    24   14   15 1   
    25   14   58 1   
    26   14   59 1   
    27   15   16 1   
    28   15   60 1   
    29   15   61 1   
    30   16   17 1   
    31   16   62 1   
    32   16   63 1   
    33   17   18 1   
    34   17   64 1   
    35   17   65 1   
    36   18   19 1   
    37   18   66 1   
    38   18   67 1   
    39   19   20 1   
    40   19   68 1   
    41   19   69 1   
    42   20   21 1   
    43   20   70 1   
    44   20   71 1   
    45   21   22 1   
    46   21   72 1   
    47   21   73 1   
    48   22   23 1   
    49   22   74 1   
    50   22   75 1   
    51   23   24 1   
    52   23   76 1   
    53   23   77 1   
    54   24   25 1   
    55   24   78 1   
    56   24   79 1   
    57   25   26 1   
    58   25   80 1   
    59   25   81 1   
    60   26   27 1   
    61   26   82 1   
    62   26   83 1   
    63   27   84 1   
    64   27   85 1   
    65   27   86 1   
    66   28   29 1   
    67   28   87 1   
    68   28   88 1   
    69   29   30 1   
    70   30   31 2   
    71   30   32 1   
    72   32   33 1   
    73   32   89 1   
    74   32   90 1   
    75   33   34 1   
    76   33   91 1   
    77   33   92 1   
    78   34   35 1   
    79   34   93 1   
    80   34   94 1   
    81   35   36 1   
    82   35   95 1   
    83   35   96 1   
    84   36   37 1   
    85   36   97 1   
    86   36   98 1   
    87   37   38 1   
    88   37   99 1   
    89   37  100 1   
    90   38   39 1   
    91   38  101 1   
    92   38  102 1   
    93   39   40 1   
    94   39  103 1   
    95   39  104 1   
    96   40   41 1   
    97   40  105 1   
    98   40  106 1   
    99   41   42 1   
   100   41  107 1   
   101   41  108 1   
   102   42   43 1   
   103   42  109 1   
   104   42  110 1   
   105   43   44 1   
   106   43  111 1   
   107   43  112 1   
   108   44   45 1   
   109   44  113 1   
   110   44  114 1   
   111   45   46 1   
   112   45  115 1   
   113   45  116 1   
   114   46   47 1   
   115   46  117 1   
   116   46  118 1   
   117   47   48 1   
   118   47  119 1   
   119   47  120 1   
   120   48  121 1   
   121   48  122 1   
   122   48  123 1   
@<TRIPOS>SUBSTRUCTURE
     1 2SP         1 TEMP              0 ****  ****    0 ROOT
