@<TRIPOS>MOLECULE
molecule
  123   122     1     0     0
SMALL
bcc


@<TRIPOS>ATOM
      1 O1P          0.0000     0.0000     0.0000 o          1 2SP      -0.910167
      2 P            1.6100     0.0000     0.0000 p5         1 2SP       1.149900
      3 O2P          2.1030     0.0000     1.3950 o          1 2SP      -0.910167
      4 O4P          2.1470    -1.3130    -0.7600 o          1 2SP      -0.910167
      5 O3P          2.1460     1.3160    -0.7590 os         1 2SP      -0.523200
      6 C1           3.5730     1.2580    -0.7270 c3         1 2SP       0.142400
      7 C2           4.1480     2.4850    -1.4340 c3         1 2SP       0.146100
      8 O2           3.6970     3.6900    -0.7600 os         1 2SP      -0.401900
      9 C31          4.4210     4.2080     0.2440 c          1 2SP       0.645100
     10 O31          5.4480     3.6730     0.5880 o          1 2SP      -0.583000
     11 C32          3.9510     5.4580     0.9440 c3         1 2SP      -0.126400
     12 C33          4.9500     5.8340     2.0410 c3         1 2SP      -0.071400
     13 C34          4.4740     7.1020     2.7510 c3         1 2SP      -0.084400
     14 C35          5.4720     7.4780     3.8470 c3         1 2SP      -0.080400
     15 C36          4.9970     8.7460     4.5570 c3         1 2SP      -0.082400
     16 C37          5.9960     9.1220     5.6540 c3         1 2SP      -0.082400
     17 C38          5.5190    10.3910     6.3650 c3         1 2SP      -0.082400
     18 C39          6.5180    10.7670     7.4610 c3         1 2SP      -0.082400
     19 C40          6.0420    12.0360     8.1710 c3         1 2SP      -0.082400
     20 C41          7.0400    12.4110     9.2680 c3         1 2SP      -0.082400
     21 C42          6.5650    13.6800     9.9770 c3         1 2SP      -0.082400
     22 C43          7.5640    14.0570    11.0740 c3         1 2SP      -0.082400
     23 C44          7.0880    15.3250    11.7850 c3         1 2SP      -0.082400
     24 C45          8.0870    15.7010    12.8810 c3         1 2SP      -0.082400
     25 C46          7.6100    16.9700    13.5910 c3         1 2SP      -0.081400
     26 C47          8.6090    17.3450    14.6880 c3         1 2SP      -0.084400
     27 C48          8.1330    18.6140    15.3980 c3         1 2SP      -0.092100
     28 C3           3.6730     2.5060    -2.8870 c3         1 2SP       0.173400
     29 O3           2.2220     2.5640    -2.9210 os         1 2SP      -0.338900
     30 C11          1.5790     2.5910    -4.0990 c          1 2SP       0.648100
     31 O11          2.2060     2.5670    -5.1300 o          1 2SP      -0.623000
     32 C12          0.0740     2.6510    -4.1330 c3         1 2SP      -0.126400
     33 C13         -0.4030     2.6710    -5.5870 c3         1 2SP      -0.071400
     34 C14         -1.9310     2.7330    -5.6220 c3         1 2SP      -0.084400
     35 C15         -2.4070     2.7530    -7.0770 c3         1 2SP      -0.080400
     36 C16         -3.9360     2.8140    -7.1110 c3         1 2SP      -0.082400
     37 C17         -4.4110     2.8340    -8.5650 c3         1 2SP      -0.082400
     38 C18         -5.9390     2.8950    -8.6010 c3         1 2SP      -0.082400
     39 C19         -6.4150     2.9150   -10.0550 c3         1 2SP      -0.082400
     40 C20         -7.9440     2.9770   -10.0900 c3         1 2SP      -0.082400
     41 C21         -8.4210     2.9960   -11.5430 c3         1 2SP      -0.082400
     42 C22         -9.9480     3.0590   -11.5800 c3         1 2SP      -0.082400
     43 C23        -10.4250     3.0780   -13.0330 c3         1 2SP      -0.082400
     44 C24        -11.9530     3.1390   -13.0680 c3         1 2SP      -0.082400
     45 C25        -12.4300     3.1600   -14.5220 c3         1 2SP      -0.082400
     46 C26        -13.9580     3.2210   -14.5580 c3         1 2SP      -0.081400
     47 C27        -14.4340     3.2420   -16.0120 c3         1 2SP      -0.084400
     48 C28        -15.9620     3.3020   -16.0470 c3         1 2SP      -0.092100
     49 H11          3.9110     1.2430     0.3020 h1         1 2SP       0.056700
     50 H12          3.9100     0.3600    -1.2300 h1         1 2SP       0.056700
     51 H2           5.2300     2.4410    -1.4090 h1         1 2SP       0.043700
     52 H321         2.9790     5.2810     1.3870 hc         1 2SP       0.067200
     53 H322         3.8800     6.2680     0.2280 hc         1 2SP       0.067200
     54 H331         5.0210     5.0240     2.7570 hc         1 2SP       0.056700
     55 H332         5.9230     6.0110     1.5980 hc         1 2SP       0.056700
     56 H341         4.4030     7.9120     2.0350 hc         1 2SP       0.037200
     57 H342         3.5020     6.9250     3.1940 hc         1 2SP       0.037200
     58 H351         5.5440     6.6690     4.5630 hc         1 2SP       0.042200
     59 H352         6.4450     7.6560     3.4040 hc         1 2SP       0.042200
     60 H361         4.0240     8.5690     5.0000 hc         1 2SP       0.038700
     61 H362         4.9250     9.5560     3.8410 hc         1 2SP       0.038700
     62 H371         6.0670     8.3120     6.3700 hc         1 2SP       0.040700
     63 H372         6.9680     9.2990     5.2120 hc         1 2SP       0.040700
     64 H381         5.4480    11.2010     5.6480 hc         1 2SP       0.039700
     65 H382         4.5470    10.2140     6.8070 hc         1 2SP       0.039700
     66 H391         6.5900     9.9570     8.1780 hc         1 2SP       0.040200
     67 H392         7.4910    10.9440     7.0190 hc         1 2SP       0.040200
     68 H401         5.9700    12.8450     7.4550 hc         1 2SP       0.040200
     69 H402         5.0690    11.8580     8.6140 hc         1 2SP       0.040200
     70 H411         8.0130    12.5880     8.8250 hc         1 2SP       0.040700
     71 H412         7.1110    11.6020     9.9840 hc         1 2SP       0.040700
     72 H421         5.5920    13.5040    10.4200 hc         1 2SP       0.040200
     73 H422         6.4940    14.4900     9.2610 hc         1 2SP       0.040200
     74 H431         7.6350    13.2470    11.7900 hc         1 2SP       0.040200
     75 H432         8.5360    14.2340    10.6320 hc         1 2SP       0.040200
     76 H441         6.1150    15.1480    12.2270 hc         1 2SP       0.040200
     77 H442         7.0160    16.1350    11.0680 hc         1 2SP       0.040200
     78 H451         9.0590    15.8780    12.4390 hc         1 2SP       0.040200
     79 H452         8.1580    14.8910    13.5980 hc         1 2SP       0.040200
     80 H461         6.6370    16.7930    14.0340 hc         1 2SP       0.040200
     81 H462         7.5390    17.7790    12.8750 hc         1 2SP       0.040200
     82 H471         8.6800    16.5360    15.4040 hc         1 2SP       0.039200
     83 H472         9.5810    17.5230    14.2450 hc         1 2SP       0.039200
     84 H481         8.0620    19.4240    14.6820 hc         1 2SP       0.031033
     85 H482         7.1600    18.4370    15.8410 hc         1 2SP       0.031033
     86 H483         8.8400    18.8800    16.1740 hc         1 2SP       0.031033
     87 H31          4.0100     1.6080    -3.3910 h1         1 2SP       0.033200
     88 H32          4.0810     3.3760    -3.3880 h1         1 2SP       0.033200
     89 H121        -0.3340     1.7820    -3.6310 hc         1 2SP       0.089700
     90 H122        -0.2630     3.5500    -3.6310 hc         1 2SP       0.089700
     91 H131         0.0050     3.5400    -6.0890 hc         1 2SP       0.045700
     92 H132        -0.0660     1.7720    -6.0900 hc         1 2SP       0.045700
     93 H141        -2.2680     3.6310    -5.1190 hc         1 2SP       0.045700
     94 H142        -2.3400     1.8640    -5.1200 hc         1 2SP       0.045700
     95 H151        -2.0710     1.8540    -7.5790 hc         1 2SP       0.036700
     96 H152        -1.9990     3.6220    -7.5780 hc         1 2SP       0.036700
     97 H161        -4.3440     1.9450    -6.6090 hc         1 2SP       0.042700
     98 H162        -4.2730     3.7130    -6.6090 hc         1 2SP       0.042700
     99 H171        -4.0020     3.7020    -9.0670 hc         1 2SP       0.037200
    100 H172        -4.0740     1.9350    -9.0670 hc         1 2SP       0.037200
    101 H181        -6.2760     3.7940    -8.0990 hc         1 2SP       0.041200
    102 H182        -6.3480     2.0260    -8.0990 hc         1 2SP       0.041200
    103 H191        -6.0790     2.0170   -10.5570 hc         1 2SP       0.038700
    104 H192        -6.0070     3.7840   -10.5560 hc         1 2SP       0.038700
    105 H201        -8.3520     2.1080    -9.5880 hc         1 2SP       0.041200
    106 H202        -8.2810     3.8760    -9.5880 hc         1 2SP       0.041200
    107 H211        -8.0840     2.0980   -12.0450 hc         1 2SP       0.039700
    108 H212        -8.0120     3.8650   -12.0450 hc         1 2SP       0.039700
    109 H221       -10.2850     3.9570   -11.0770 hc         1 2SP       0.040700
    110 H222       -10.3570     2.1900   -11.0780 hc         1 2SP       0.040700
    111 H231       -10.0170     3.9470   -13.5350 hc         1 2SP       0.040200
    112 H232       -10.0880     2.1800   -13.5350 hc         1 2SP       0.040200
    113 H241       -12.3610     2.2690   -12.5670 hc         1 2SP       0.041200
    114 H242       -12.2900     4.0370   -12.5650 hc         1 2SP       0.041200
    115 H251       -12.0920     2.2620   -15.0250 hc         1 2SP       0.040200
    116 H252       -12.0220     4.0290   -15.0230 hc         1 2SP       0.040200
    117 H261       -14.2950     4.1180   -14.0540 hc         1 2SP       0.040700
    118 H262       -14.3660     2.3510   -14.0570 hc         1 2SP       0.040700
    119 H271       -14.0260     4.1120   -16.5130 hc         1 2SP       0.039200
    120 H272       -14.0960     2.3440   -16.5150 hc         1 2SP       0.039200
    121 H281       -16.2990     3.3170   -17.0760 hc         1 2SP       0.030700
    122 H282       -16.3000     4.2000   -15.5430 hc         1 2SP       0.030700
    123 H283       -16.3700     2.4320   -15.5460 hc         1 2SP       0.030700
@<TRIPOS>BOND
     1     1     2 1
     2     2     3 1
     3     2     4 1
     4     2     5 1
     5     5     6 1
     6     6     7 1
     7     6    49 1
     8     6    50 1
     9     7     8 1
    10     7    28 1
    11     7    51 1
    12     8     9 1
    13     9    10 2
    14     9    11 1
    15    11    12 1
    16    11    52 1
    17    11    53 1
    18    12    13 1
    19    12    54 1
    20    12    55 1
    21    13    14 1
    22    13    56 1
    23    13    57 1
    24    14    15 1
    25    14    58 1
    26    14    59 1
    27    15    16 1
    28    15    60 1
    29    15    61 1
    30    16    17 1
    31    16    62 1
    32    16    63 1
    33    17    18 1
    34    17    64 1
    35    17    65 1
    36    18    19 1
    37    18    66 1
    38    18    67 1
    39    19    20 1
    40    19    68 1
    41    19    69 1
    42    20    21 1
    43    20    70 1
    44    20    71 1
    45    21    22 1
    46    21    72 1
    47    21    73 1
    48    22    23 1
    49    22    74 1
    50    22    75 1
    51    23    24 1
    52    23    76 1
    53    23    77 1
    54    24    25 1
    55    24    78 1
    56    24    79 1
    57    25    26 1
    58    25    80 1
    59    25    81 1
    60    26    27 1
    61    26    82 1
    62    26    83 1
    63    27    84 1
    64    27    85 1
    65    27    86 1
    66    28    29 1
    67    28    87 1
    68    28    88 1
    69    29    30 1
    70    30    31 2
    71    30    32 1
    72    32    33 1
    73    32    89 1
    74    32    90 1
    75    33    34 1
    76    33    91 1
    77    33    92 1
    78    34    35 1
    79    34    93 1
    80    34    94 1
    81    35    36 1
    82    35    95 1
    83    35    96 1
    84    36    37 1
    85    36    97 1
    86    36    98 1
    87    37    38 1
    88    37    99 1
    89    37   100 1
    90    38    39 1
    91    38   101 1
    92    38   102 1
    93    39    40 1
    94    39   103 1
    95    39   104 1
    96    40    41 1
    97    40   105 1
    98    40   106 1
    99    41    42 1
   100    41   107 1
   101    41   108 1
   102    42    43 1
   103    42   109 1
   104    42   110 1
   105    43    44 1
   106    43   111 1
   107    43   112 1
   108    44    45 1
   109    44   113 1
   110    44   114 1
   111    45    46 1
   112    45   115 1
   113    45   116 1
   114    46    47 1
   115    46   117 1
   116    46   118 1
   117    47    48 1
   118    47   119 1
   119    47   120 1
   120    48   121 1
   121    48   122 1
   122    48   123 1
@<TRIPOS>SUBSTRUCTURE
     1 2SP         1 TEMP              0 ****  ****    0 ROOT
