@<TRIPOS>MOLECULE
2SQ
   60    63     1     0     0
SMALL
bcc


@<TRIPOS>ATOM
      1 C01          0.0000     0.0000     0.0000 c3         1 2SQ       0.038200
      2 C05          1.5070     0.0000     0.0000 ca         1 2SQ      -0.017300
      3 C06          2.1960     0.0000     1.1990 ca         1 2SQ      -0.155300
      4 C07          1.4090     0.0120     2.4850 c3         1 2SQ       0.042900
      5 C10          2.3080    -0.4270     3.6430 c3         1 2SQ      -0.075400
      6 C13          3.6210     0.3610     3.5600 c3         1 2SQ       0.214400
      7 O16          4.2950    -0.0120     2.3580 os         1 2SQ      -0.304900
      8 C17          3.5810    -0.0040     1.2000 ca         1 2SQ       0.117100
      9 C18          4.2770    -0.0030    -0.0070 ca         1 2SQ       0.047900
     10 F19          5.6280    -0.0040    -0.0040 f          1 2SQ      -0.133900
     11 C20          3.5950    -0.0010    -1.2060 ca         1 2SQ      -0.115000
     12 C22          2.2000    -0.0060    -1.2090 ca         1 2SQ       0.008200
     13 C23          1.4580    -0.0110    -2.4910 cc         1 2SQ      -0.156400
     14 C24          1.3720    -1.1470    -3.2290 cd         1 2SQ      -0.009600
     15 C25          2.0410    -2.3970    -2.7210 c3         1 2SQ       0.067300
     16 O27          2.9870    -2.8580    -3.6880 os         1 2SQ      -0.393600
     17 C28          4.1040    -3.5500    -3.1270 c3         1 2SQ       0.168800
     18 C29          5.0460    -3.9940    -4.2470 c3         1 2SQ      -0.038767
     19 C33          4.8530    -2.6180    -2.1710 c3         1 2SQ      -0.038767
     20 C37          3.6100    -4.7770    -2.3580 c3         1 2SQ      -0.038767
     21 C41          1.0020    -3.4630    -2.4870 c          1 2SQ       0.954600
     22 O42          1.0120    -4.4720    -3.1520 o          1 2SQ      -0.870800
     23 O44          0.0660    -3.2920    -1.5400 o          1 2SQ      -0.870800
     24 N45          0.7000    -1.1930    -4.4140 n          1 2SQ       0.138000
     25 C46          0.6540    -2.4600    -5.1490 c3         1 2SQ      -0.035700
     26 C50          0.0760    -0.1180    -4.9330 c          1 2SQ       0.611100
     27 O51         -0.5130    -0.2040    -5.9950 o          1 2SQ      -0.713500
     28 C52          0.1120     1.1570    -4.2090 ca         1 2SQ      -0.169600
     29 C53         -0.5150     2.3020    -4.7010 ca         1 2SQ      -0.013000
     30 C55         -0.4500     3.4740    -3.9810 ca         1 2SQ      -0.190000
     31 C57          0.2340     3.5280    -2.7730 ca         1 2SQ      -0.120000
     32 C59          0.8610     2.4100    -2.2690 ca         1 2SQ      -0.138000
     33 C61          0.8020     1.2120    -2.9770 ca         1 2SQ       0.086200
     34 H1          -0.3610     0.8930     0.4960 hc         1 2SQ       0.023367
     35 H2          -0.3610    -0.0160    -1.0210 hc         1 2SQ       0.023367
     36 H3          -0.3610    -0.8760     0.5250 hc         1 2SQ       0.023367
     37 H4           0.5730    -0.6710     2.4000 hc         1 2SQ       0.027200
     38 H5           1.0450     1.0140     2.6730 hc         1 2SQ       0.027200
     39 H6           2.5150    -1.4870     3.5620 hc         1 2SQ       0.024700
     40 H7           1.8170    -0.2170     4.5850 hc         1 2SQ       0.024700
     41 H8           4.2430     0.1000     4.4080 h1         1 2SQ       0.008700
     42 H9           3.3960     1.4200     3.5240 h1         1 2SQ       0.008700
     43 H10          4.1400    -0.0060    -2.1420 ha         1 2SQ       0.133000
     44 H11          2.5520    -2.1810    -1.7910 h1         1 2SQ       0.052700
     45 H12          5.8960    -4.5120    -3.8200 hc         1 2SQ       0.014922
     46 H13          5.3900    -3.1260    -4.7960 hc         1 2SQ       0.014922
     47 H14          4.5180    -4.6600    -4.9190 hc         1 2SQ       0.014922
     48 H15          5.8420    -3.0160    -1.9790 hc         1 2SQ       0.014922
     49 H16          4.3070    -2.5420    -1.2390 hc         1 2SQ       0.014922
     50 H17          4.9400    -1.6350    -2.6200 hc         1 2SQ       0.014922
     51 H18          3.0090    -4.4580    -1.5160 hc         1 2SQ       0.014922
     52 H19          3.0120    -5.3970    -3.0150 hc         1 2SQ       0.014922
     53 H20          4.4600    -5.3450    -2.0010 hc         1 2SQ       0.014922
     54 H22          0.0250    -3.1640    -4.6180 h1         1 2SQ       0.057700
     55 H23          0.2480    -2.2880    -6.1390 h1         1 2SQ       0.057700
     56 H24          1.6560    -2.8640    -5.2350 h1         1 2SQ       0.057700
     57 H25         -1.0820     2.4370    -5.6140 ha         1 2SQ       0.111000
     58 H26         -0.9320     4.3620    -4.3720 ha         1 2SQ       0.093000
     59 H27          0.2090     4.5070    -2.3110 ha         1 2SQ       0.089000
     60 H28          1.4430     3.0250    -1.5940 ha         1 2SQ       0.129000
@<TRIPOS>BOND
     1     1     2 1   
     2     1    34 1   
     3     1    35 1   
     4     1    36 1   
     5     2     3 ar  
     6     2    12 ar  
     7     3     4 1   
     8     3     8 ar  
     9     4     5 1   
    10     4    37 1   
    11     4    38 1   
    12     5     6 1   
    13     5    39 1   
    14     5    40 1   
    15     6     7 1   
    16     6    41 1   
    17     6    42 1   
    18     7     8 1   
    19     8     9 ar  
    20     9    10 1   
    21     9    11 ar  
    22    11    12 ar  
    23    11    43 1   
    24    12    13 1   
    25    13    14 2   
    26    13    33 1   
    27    14    15 1   
    28    14    24 1   
    29    15    16 1   
    30    15    21 1   
    31    15    44 1   
    32    16    17 1   
    33    17    18 1   
    34    17    19 1   
    35    17    20 1   
    36    18    45 1   
    37    18    46 1   
    38    18    47 1   
    39    19    48 1   
    40    19    49 1   
    41    19    50 1   
    42    20    51 1   
    43    20    52 1   
    44    20    53 1   
    45    21    22 1   
    46    21    23 1   
    47    24    25 1   
    48    24    26 1   
    49    25    54 1   
    50    25    55 1   
    51    25    56 1   
    52    26    27 2   
    53    26    28 1   
    54    28    29 ar  
    55    28    33 ar  
    56    29    30 ar  
    57    29    57 1   
    58    30    31 ar  
    59    30    58 1   
    60    31    32 ar  
    61    31    59 1   
    62    32    33 ar  
    63    32    60 1   
@<TRIPOS>SUBSTRUCTURE
     1 2SQ         1 TEMP              0 ****  ****    0 ROOT
