@<TRIPOS>MOLECULE
molecule
   54    57     1     0     0
SMALL
bcc


@<TRIPOS>ATOM
      1 C01          0.0000     0.0000     0.0000 c3         1 2SR      -0.112400
      2 C02          1.5310     0.0000     0.0000 c3         1 2SR      -0.098700
      3 C03          2.0310     0.0000     1.4480 c3         1 2SR      -0.112400
      4 C04          1.4500    -1.2130     2.1810 c3         1 2SR       0.138900
      5 O05          0.0230    -1.1670     2.1160 os         1 2SR      -0.424600
      6 C06         -0.5030    -1.2130     0.7880 c3         1 2SR       0.138900
      7 C07          2.0440     1.2490    -0.7180 c3         1 2SR       0.206300
      8 C08          2.4160     0.6030    -3.0650 ce         1 2SR       0.145900
      9 C09          3.6950     0.0230    -2.5930 ca         1 2SR      -0.142800
     10 C10          4.1810     0.4160    -1.3390 ca         1 2SR       0.155100
     11 O11          3.4670     1.3070    -0.6080 os         1 2SR      -0.317900
     12 C12          1.6260     1.1970    -2.1650 c2         1 2SR      -0.266200
     13 O13          2.0570     0.5330    -4.3740 oh         1 2SR      -0.513100
     14 C14          4.4070    -0.8890    -3.3630 ca         1 2SR      -0.068000
     15 C15          5.5980    -1.4090    -2.8890 ca         1 2SR      -0.118300
     16 C16          6.0840    -1.0290    -1.6530 ca         1 2SR      -0.083000
     17 C17          5.3810    -0.1140    -0.8680 cp         1 2SR      -0.059000
     18 C18          6.3690    -2.3980    -3.7250 c3         1 2SR      -0.043800
     19 C19          5.9070     0.2910     0.4580 cp         1 2SR      -0.036000
     20 C20          6.3040    -0.6780     1.3770 ca         1 2SR      -0.182000
     21 C21          6.7930    -0.2960     2.6130 ca         1 2SR       0.111100
     22 C22          6.8890     1.0560     2.9350 ca         1 2SR       0.118100
     23 C23          6.4940     2.0190     2.0200 ca         1 2SR      -0.193000
     24 C24          6.0100     1.6420     0.7830 ca         1 2SR      -0.098000
     25 O25          7.1810    -1.2400     3.5130 os         1 2SR      -0.313900
     26 O26          7.3660     1.4310     4.1530 os         1 2SR      -0.313900
     27 C27          7.0550    -2.6060     3.1140 c3         1 2SR       0.127700
     28 C28          7.4310     2.8330     4.4200 c3         1 2SR       0.127700
     29 H1          -0.3610     0.9090     0.4670 hc         1 2SR       0.056450
     30 H2          -0.3610    -0.0580    -1.0200 hc         1 2SR       0.056450
     31 H3           1.8910    -0.8880    -0.5060 hc         1 2SR       0.065700
     32 H4           1.7080     0.9090     1.9420 hc         1 2SR       0.056450
     33 H5           3.1130    -0.0580     1.4560 hc         1 2SR       0.056450
     34 H6           1.8020    -2.1220     1.7090 h1         1 2SR       0.046950
     35 H7           1.7640    -1.1920     3.2170 h1         1 2SR       0.046950
     36 H8          -0.1720    -2.1220     0.3010 h1         1 2SR       0.046950
     37 H9          -1.5860    -1.1920     0.8290 h1         1 2SR       0.046950
     38 H10          1.6160     2.1320    -0.2570 h1         1 2SR       0.091700
     39 H11          0.7210     1.6990    -2.4860 ha         1 2SR       0.143000
     40 H12          2.1020     1.3930    -4.7590 ho         1 2SR       0.423000
     41 H13          4.0310    -1.1910    -4.3330 ha         1 2SR       0.148000
     42 H14          7.0180    -1.4430    -1.2920 ha         1 2SR       0.140000
     43 H15          6.0190    -3.4010    -3.5130 hc         1 2SR       0.043367
     44 H16          6.2190    -2.1780    -4.7750 hc         1 2SR       0.043367
     45 H17          7.4230    -2.3260    -3.4880 hc         1 2SR       0.043367
     46 H18          6.2290    -1.7290     1.1240 ha         1 2SR       0.142000
     47 H19          6.5720     3.0690     2.2740 ha         1 2SR       0.141000
     48 H20          5.7010     2.3970     0.0700 ha         1 2SR       0.144000
     49 H21          7.6060    -2.7670     2.1950 h1         1 2SR       0.039700
     50 H22          6.0100    -2.8410     2.9530 h1         1 2SR       0.039700
     51 H23          7.4530    -3.2470     3.8910 h1         1 2SR       0.039700
     52 H24          8.0820     3.3080     3.6970 h1         1 2SR       0.040367
     53 H25          6.4380     3.2600     4.3480 h1         1 2SR       0.040367
     54 H26          7.8220     2.9920     5.4180 h1         1 2SR       0.040367
@<TRIPOS>BOND
     1    28    26 1   
     2    26    22 1   
     3    22    23 ar  
     4    22    21 ar  
     5    25    27 1   
     6    25    21 1   
     7    23    24 ar  
     8    21    20 ar  
     9     5     4 1   
    10     5     6 1   
    11    24    19 ar  
    12    20    19 ar  
    13     4     3 1   
    14    19    17 1   
    15     6     1 1   
    16     3     2 1   
    17     1     2 1   
    18    11    10 1   
    19    11     7 1   
    20    17    16 ar  
    21    17    10 ar  
    22     2     7 1   
    23    16    15 ar  
    24    10     9 ar  
    25     7    12 1   
    26    15    18 1   
    27    15    14 ar  
    28     9    14 ar  
    29     9     8 1   
    30    12     8 2   
    31     8    13 1   
    32     1    29 1   
    33     1    30 1   
    34     2    31 1   
    35     3    32 1   
    36     3    33 1   
    37     4    34 1   
    38     4    35 1   
    39     6    36 1   
    40     6    37 1   
    41     7    38 1   
    42    12    39 1   
    43    13    40 1   
    44    14    41 1   
    45    16    42 1   
    46    18    43 1   
    47    18    44 1   
    48    18    45 1   
    49    20    46 1   
    50    23    47 1   
    51    24    48 1   
    52    27    49 1   
    53    27    50 1   
    54    27    51 1   
    55    28    52 1   
    56    28    53 1   
    57    28    54 1   
@<TRIPOS>SUBSTRUCTURE
     1 2SR         1 TEMP              0 ****  ****    0 ROOT
