@<TRIPOS>MOLECULE
2SR
   54    57     1     0     0
SMALL
bcc


@<TRIPOS>ATOM
      1 C01        -0.1630    0.1240   -0.1000 c3        1 2SR     -0.108400
      2 C02         1.3470    0.1040    0.0790 c3        1 2SR     -0.085700
      3 C03         1.6900    0.4100    1.5300 c3        1 2SR     -0.108400
      4 C04         0.9450   -0.5270    2.4620 c3        1 2SR      0.127900
      5 O05        -0.4630   -0.4810    2.2490 os        1 2SR     -0.417600
      6 C06        -0.8290   -0.7950    0.9110 c3        1 2SR      0.127900
      7 C07         2.0260    1.1180   -0.8530 c3        1 2SR      0.211300
      8 C08         2.4660    0.3120   -3.1430 ce        1 2SR      0.175900
      9 C09         3.7780   -0.1530   -2.7090 ca        1 2SR     -0.127800
     10 C10         4.2000    0.2330   -1.4190 ca        1 2SR      0.157100
     11 O11         3.4510    1.0790   -0.6300 os        1 2SR     -0.323900
     12 C12         1.6310    0.9180   -2.2730 c2        1 2SR     -0.331200
     13 O13         2.1810    0.0850   -4.4680 oh        1 2SR     -0.492100
     14 C14         4.6030   -0.9480   -3.5070 ca        1 2SR     -0.059000
     15 C15         5.8480   -1.3640   -3.0310 ca        1 2SR     -0.114300
     16 C16         6.2590   -0.9790   -1.7500 ca        1 2SR     -0.084000
     17 C17         5.4540   -0.1860   -0.9230 cp        1 2SR     -0.058000
     18 C18         6.7270   -2.2130   -3.8680 c3        1 2SR     -0.048800
     19 C19         5.9340    0.1850    0.4060 cp        1 2SR     -0.032000
     20 C20         6.5640   -0.7830    1.2080 ca        1 2SR     -0.172000
     21 C21         7.0480   -0.4430    2.4680 ca        1 2SR      0.096100
     22 C22         6.9090    0.8890    2.9450 ca        1 2SR      0.106100
     23 C23         6.2810    1.8430    2.1460 ca        1 2SR     -0.185000
     24 C24         5.7950    1.4900    0.8850 ca        1 2SR     -0.099000
     25 O25         7.6810   -1.3150    3.3330 os        1 2SR     -0.304900
     26 O26         7.4240    1.1230    4.2040 os        1 2SR     -0.303900
     27 C27         7.7810   -2.6640    2.8930 c3        1 2SR      0.110700
     28 C28         7.3000    2.4560    4.6860 c3        1 2SR      0.110700
     29 H1         -0.4340   -0.2110   -1.1330 hc        1 2SR      0.055450
     30 H2         -0.5420    1.1700    0.0380 hc        1 2SR      0.055450
     31 H3          1.7330   -0.9220   -0.1760 hc        1 2SR      0.061700
     32 H4          2.7950    0.3030    1.6870 hc        1 2SR      0.055450
     33 H5          1.4110    1.4700    1.7640 hc        1 2SR      0.055450
     34 H6          1.3070   -1.5820    2.3330 h1        1 2SR      0.046700
     35 H7          1.0660   -0.2140    3.5330 h1        1 2SR      0.046700
     36 H8         -0.5690   -1.8650    0.6940 h1        1 2SR      0.046700
     37 H9         -1.9440   -0.6650    0.8980 h1        1 2SR      0.046700
     38 H10         1.7680    2.1680   -0.5220 h1        1 2SR      0.079700
     39 H11         0.6360    1.2830   -2.5560 ha        1 2SR      0.143000
     40 H12         1.2980    0.4430   -4.6480 ho        1 2SR      0.422000
     41 H13         4.2610   -1.2360   -4.5140 ha        1 2SR      0.152000
     42 H14         7.2460   -1.3020   -1.3810 ha        1 2SR      0.139000
     43 H15         7.7980   -1.9180   -3.7450 hc        1 2SR      0.044700
     44 H16         6.6240   -3.2860   -3.5660 hc        1 2SR      0.044700
     45 H17         6.4590   -2.1270   -4.9490 hc        1 2SR      0.044700
     46 H18         6.6620   -1.8120    0.8310 ha        1 2SR      0.141000
     47 H19         6.1610    2.8770    2.4980 ha        1 2SR      0.140000
     48 H20         5.2890    2.2470    0.2660 ha        1 2SR      0.150000
     49 H21         6.7690   -3.1020    2.7190 h1        1 2SR      0.042700
     50 H22         8.4010   -2.7330    1.9660 h1        1 2SR      0.042700
     51 H23         8.2920   -3.1770    3.7470 h1        1 2SR      0.042700
     52 H24         7.7820    2.4110    5.6960 h1        1 2SR      0.043700
     53 H25         6.2250    2.7470    4.7760 h1        1 2SR      0.043700
     54 H26         7.8440    3.1710    4.0220 h1        1 2SR      0.043700
@<TRIPOS>BOND
     1    1    2 1   
     2    1    6 1   
     3    1   29 1   
     4    1   30 1   
     5    2    3 1   
     6    2    7 1   
     7    2   31 1   
     8    3    4 1   
     9    3   32 1   
    10    3   33 1   
    11    4    5 1   
    12    4   34 1   
    13    4   35 1   
    14    5    6 1   
    15    6   36 1   
    16    6   37 1   
    17    7   11 1   
    18    7   12 1   
    19    7   38 1   
    20    8    9 1   
    21    8   12 2   
    22    8   13 1   
    23    9   10 ar  
    24    9   14 ar  
    25   10   11 1   
    26   10   17 ar  
    27   12   39 1   
    28   13   40 1   
    29   14   15 ar  
    30   14   41 1   
    31   15   16 ar  
    32   15   18 1   
    33   16   17 ar  
    34   16   42 1   
    35   17   19 1   
    36   18   43 1   
    37   18   44 1   
    38   18   45 1   
    39   19   20 ar  
    40   19   24 ar  
    41   20   21 ar  
    42   20   46 1   
    43   21   22 ar  
    44   21   25 1   
    45   22   23 ar  
    46   22   26 1   
    47   23   24 ar  
    48   23   47 1   
    49   24   48 1   
    50   25   27 1   
    51   26   28 1   
    52   27   49 1   
    53   27   50 1   
    54   27   51 1   
    55   28   52 1   
    56   28   53 1   
    57   28   54 1   
@<TRIPOS>SUBSTRUCTURE
     1 2SR         1 TEMP              0 ****  ****    0 ROOT
