@<TRIPOS>MOLECULE
molecule
   70    73     1     0     0
SMALL
bcc


@<TRIPOS>ATOM
      1 C1           0.0000     0.0000     0.0000 ca         1 2SS      -0.154000
      2 C2           1.3840     0.0000     0.0000 ca         1 2SS      -0.131000
      3 C3          -0.6920     0.0010     1.1930 ca         1 2SS      -0.112000
      4 C4           2.0820     0.0000     1.1940 ca         1 2SS      -0.145000
      5 C5           1.7060     0.4110     7.0410 ca         1 2SS      -0.139000
      6 C6           0.7280     0.8680     7.9090 ca         1 2SS      -0.161000
      7 C7           0.0060     0.0020     2.4020 ca         1 2SS      -0.092600
      8 C8           0.6220    -1.7320     6.9440 ca         1 2SS      -0.031600
      9 C9           1.4010     0.0010     2.3940 ca         1 2SS      -0.007300
     10 C10          1.6600    -0.8780     6.5570 ca         1 2SS      -0.068300
     11 C11         -0.3070     0.0340     8.3010 ca         1 2SS       0.058100
     12 C12         -0.3660    -1.2700     7.8230 ca         1 2SS       0.067100
     13 C14          2.6890    -3.6870     3.7250 c2         1 2SS      -0.116200
     14 C15         -0.7300     0.0020     3.6840 c          1 2SS       0.663700
     15 C17         -4.0410     1.8240    12.1680 c          1 2SS       0.892600
     16 C18         -6.1170     0.9150     5.3160 cy         1 2SS      -0.111400
     17 C19         -5.1710    -0.1160     5.9530 cy         1 2SS      -0.092900
     18 C20         -4.9060     1.4130     4.5110 cy         1 2SS      -0.092900
     19 C21         -2.5320    -1.4970     8.7710 c3         1 2SS       0.100400
     20 C22         -4.3120     0.0060     4.6830 cy         1 2SS      -0.110700
     21 C23         -2.0740    -0.4660     9.8110 c3         1 2SS       0.099100
     22 C24          2.1640     0.0000     3.6950 c3         1 2SS       0.197100
     23 C25          2.7260    -1.3670     5.6110 c3         1 2SS       0.226100
     24 C26          2.9880    -2.2530     3.3730 c3         1 2SS       0.188000
     25 C28         -2.8060     0.0050     4.9590 c3         1 2SS       0.123000
     26 C29         -3.2950     0.2160    10.4330 c3         1 2SS      -0.057400
     27 N30         -2.0780     0.0030     3.6880 ns         1 2SS      -0.585900
     28 N31          2.2030    -1.3630     4.2390 n3         1 2SS      -0.660600
     29 O32         -0.1710    -3.3970     5.3400 o          1 2SS      -0.842800
     30 O33         -3.8800     2.6940    13.1770 o          1 2SS      -0.867300
     31 O34         -0.1190     0.0040     4.7350 o          1 2SS      -0.535100
     32 O35          1.1920    -3.9930     6.9890 o          1 2SS      -0.842800
     33 O36         -5.1480     1.5810    11.7490 o          1 2SS      -0.867300
     34 O37         -1.3690    -2.1050     8.2000 os         1 2SS      -0.300900
     35 O38         -1.2610     0.5080     9.1490 os         1 2SS      -0.327900
     36 H1          -0.5410    -0.0010    -0.9390 ha         1 2SS       0.111000
     37 H2           1.9240    -0.0010    -0.9400 ha         1 2SS       0.109000
     38 H3          -1.7760     0.0010     1.1920 ha         1 2SS       0.121000
     39 H4           3.1650    -0.0000     1.1870 ha         1 2SS       0.123000
     40 H5           2.5100     1.0710     6.7400 ha         1 2SS       0.096000
     41 H6           0.7740     1.8830     8.2840 ha         1 2SS       0.117000
     42 H241         3.1740     0.3490     3.5210 h1         1 2SS       0.047200
     43 H242         1.6720     0.6570     4.4020 h1         1 2SS       0.047200
     44 H251         3.5890    -0.7140     5.6710 h1         1 2SS       0.032200
     45 H252         3.0170    -2.3750     5.8840 h1         1 2SS       0.032200
     46 H131         2.0600    -5.5470     3.0520 ha         1 2SS       0.095500
     47 H132         2.1470    -4.1700     1.7800 ha         1 2SS       0.095500
     48 H14          2.8170    -4.0330     4.7430 ha         1 2SS       0.158000
     49 H261         4.0440    -2.0590     3.5170 h1         1 2SS       0.013700
     50 H262         2.7250    -2.0730     2.3370 h1         1 2SS       0.013700
     51 H30         -2.5800    -0.0290     2.8230 hn         1 2SS       0.293500
     52 H271        -2.1720     1.9030    11.1500 hc         1 2SS       0.037200
     53 H272        -2.3190     0.5790    12.3140 hc         1 2SS       0.037200
     54 H181        -6.4840     1.6470     6.0250 hc         1 2SS       0.045700
     55 H182        -6.8810     0.4630     4.6960 hc         1 2SS       0.045700
     56 H191        -5.6240    -1.0940     6.0660 hc         1 2SS       0.055950
     57 H192        -4.6720     0.2570     6.8390 hc         1 2SS       0.055950
     58 H201        -5.1490     1.6470     3.4810 hc         1 2SS       0.055950
     59 H202        -4.3390     2.1780     5.0270 hc         1 2SS       0.055950
     60 H22         -4.6220    -0.6780     3.9010 hc         1 2SS       0.058700
     61 H211        -3.1030    -1.0030     7.9940 h1         1 2SS       0.051200
     62 H212        -3.1400    -2.2550     9.2520 h1         1 2SS       0.051200
     63 H23         -1.4940    -0.9610    10.5810 h1         1 2SS       0.050700
     64 H281        -2.5430     0.8900     5.5250 h1         1 2SS       0.074700
     65 H282        -2.5440    -0.8790     5.5270 h1         1 2SS       0.074700
     66 H291        -3.8140     0.7890     9.6750 hc         1 2SS       0.052700
     67 H292        -3.9620    -0.5350    10.8390 hc         1 2SS       0.052700
     68 C13          2.2750    -4.5160     2.7990 c2         1 2SS      -0.241000
     69 C27         -2.8390     1.1520    11.5550 c3         1 2SS      -0.180400
     70 C16          0.5690    -3.1120     6.4300 c          1 2SS       0.900200
@<TRIPOS>BOND
     1     1     2 ar
     2     1     3 ar
     3     2     4 ar
     4     3     7 ar
     5     4     9 ar
     6     5     6 ar
     7     5    10 ar
     8     6    11 ar
     9     7     9 ar
    10     7    14 1
    11     8    10 ar
    12     8    12 ar
    13     8    70 1
    14     9    22 1
    15    10    23 1
    16    11    12 ar
    17    11    35 1
    18    12    34 1
    19    68    13 2
    20    13    24 1
    21    14    27 1
    22    14    31 2
    23    70    29 1
    24    70    32 1
    25    15    69 1
    26    15    30 1
    27    15    33 1
    28    16    17 1
    29    16    18 1
    30    17    20 1
    31    18    20 1
    32    19    21 1
    33    19    34 1
    34    20    25 1
    35    21    26 1
    36    21    35 1
    37    22    28 1
    38    23    28 1
    39    24    28 1
    40    69    26 1
    41    25    27 1
    42     1    36 1
    43     2    37 1
    44     3    38 1
    45     4    39 1
    46     5    40 1
    47     6    41 1
    48    22    42 1
    49    22    43 1
    50    23    44 1
    51    23    45 1
    52    68    46 1
    53    68    47 1
    54    13    48 1
    55    24    49 1
    56    24    50 1
    57    27    51 1
    58    69    52 1
    59    69    53 1
    60    16    54 1
    61    16    55 1
    62    17    56 1
    63    17    57 1
    64    18    58 1
    65    18    59 1
    66    20    60 1
    67    19    61 1
    68    19    62 1
    69    21    63 1
    70    25    64 1
    71    25    65 1
    72    26    66 1
    73    26    67 1
@<TRIPOS>SUBSTRUCTURE
     1 2SS         1 TEMP              0 ****  ****    0 ROOT
