@<TRIPOS>MOLECULE
molecule
   30    31     1     0     0
SMALL
bcc


@<TRIPOS>ATOM
      1 F01          0.0000     0.0000     0.0000 f          1 2SU      -0.205300
      2 O02          0.3960    -1.1770     2.8140 o          1 2SU      -0.766300
      3 O03          2.0810    -2.3870     2.0500 o          1 2SU      -0.766300
      4 N04          3.1360     4.2370     0.8960 na         1 2SU      -0.177400
      5 N05          3.3770     0.0000     1.4430 nz         1 2SU      -0.782600
      6 C06          1.9090     0.0000     1.4420 c3         1 2SU      -0.039800
      7 C07          1.3980     1.2490     2.1640 c3         1 2SU      -0.004200
      8 C08          1.9010     2.4800     1.4540 cc         1 2SU      -0.195400
      9 C09          1.2820     3.1330     0.2970 ca         1 2SU      -0.108800
     10 C10          1.4000     0.0000     0.0000 c3         1 2SU       0.175900
     11 C11          2.1020     4.2330    -0.0120 ca         1 2SU      -0.038200
     12 C12          3.0010     3.1860     1.7610 cd         1 2SU      -0.127100
     13 C13          1.4060    -1.2310     2.1530 c          1 2SU       0.867600
     14 C14          0.1410     2.8750    -0.4670 ca         1 2SU      -0.082000
     15 C15          1.7620     5.0560    -1.0820 ca         1 2SU      -0.147000
     16 C16         -0.1730     3.6960    -1.5130 ca         1 2SU      -0.149000
     17 C17          0.6330     4.7840    -1.8230 ca         1 2SU      -0.097000
     18 H2           3.8780     4.9090     0.9190 hn         1 2SU       0.300700
     19 H3           3.7110    -0.8640     1.0630 hn         1 2SU       0.441800
     20 H4           3.7110     0.7610     0.8850 hn         1 2SU       0.441800
     21 H6           1.7590     1.2480     3.1850 hc         1 2SU       0.095700
     22 H7           0.3150     1.2480     2.1630 hc         1 2SU       0.095700
     23 H8           1.7610    -0.8850    -0.5110 h1         1 2SU       0.053200
     24 H9           1.7610     0.8840    -0.5110 h1         1 2SU       0.053200
     25 H10          3.6790     2.9580     2.5740 h4         1 2SU       0.157000
     26 H11         -0.4920     2.0280    -0.2310 ha         1 2SU       0.160000
     27 H12          2.3830     5.9070    -1.3320 ha         1 2SU       0.129000
     28 H13         -1.0570     3.4960    -2.1060 ha         1 2SU       0.139000
     29 H14          0.3700     5.4250    -2.6560 ha         1 2SU       0.136000
     30 H053         3.7110     0.1080     2.3800 hn         1 2SU       0.441800
@<TRIPOS>BOND
     1     3    13 1   
     2     5     6 1   
     3    13     6 1   
     4    13     2 1   
     5    15    17 ar  
     6    15    11 ar  
     7    17    16 ar  
     8     6    10 1   
     9     6     7 1   
    10     4    11 1   
    11     4    12 1   
    12    11     9 ar  
    13    10     1 1   
    14    16    14 ar  
    15    12     8 2   
    16     9    14 ar  
    17     9     8 1   
    18     8     7 1   
    19     4    18 1   
    20     5    19 1   
    21     5    20 1   
    22     7    21 1   
    23     7    22 1   
    24    10    23 1   
    25    10    24 1   
    26    12    25 1   
    27    14    26 1   
    28    15    27 1   
    29    16    28 1   
    30    17    29 1   
    31    30     5 1   
@<TRIPOS>SUBSTRUCTURE
     1 2SU         1 TEMP              0 ****  ****    0 ROOT
