@<TRIPOS>MOLECULE
2SW
   71    74     1     0     0
SMALL
bcc


@<TRIPOS>ATOM
      1 C17          0.0000     0.0000     0.0000 ca         1 2SW      -0.106000
      2 C16          1.3840     0.0000     0.0000 ca         1 2SW      -0.028600
      3 Cl2          2.2520     0.0030    -1.5030 cl         1 2SW      -0.050400
      4 C15          2.0750     0.0000     1.1980 ca         1 2SW      -0.116000
      5 C14          1.3830    -0.0010     2.3960 ca         1 2SW      -0.093000
      6 C13          0.0010    -0.0030     2.3940 ca         1 2SW      -0.090000
      7 C6          -0.6910     0.0040     1.1970 ca         1 2SW      -0.053300
      8 C2          -2.1980     0.0040     1.1980 c3         1 2SW      -0.016400
      9 C3          -2.7130     1.2580     0.4820 c3         1 2SW      -0.033400
     10 C4          -4.2330     1.3240     0.6570 c3         1 2SW      -0.101300
     11 C21         -4.5620     1.6750     2.1090 c3         1 2SW      -0.117400
     12 C23         -6.0460     1.9050     2.2450 c          1 2SW       0.989600
     13 O3          -6.5570     2.3080     3.4190 o          1 2SW      -0.885300
     14 O2          -6.7740     1.7260     1.2980 o          1 2SW      -0.885300
     15 C24         -4.8030     2.4010    -0.2680 c3         1 2SW      -0.012100
     16 C5          -4.8450    -0.0030     0.3110 c2         1 2SW       0.472600
     17 O1          -6.0350    -0.0430     0.0800 os         1 2SW      -0.400600
     18 N1          -4.1510    -1.1390     0.2460 nh         1 2SW      -0.066100
     19 C18         -4.8800    -2.3740    -0.0530 c3         1 2SW       0.029000
     20 C19         -3.9130    -3.4120    -0.6240 c3         1 2SW      -0.135400
     21 C22         -3.3390    -2.9010    -1.9470 c3         1 2SW      -0.001100
     22 C20         -5.5130    -2.9170     1.2300 c3         1 2SW      -0.130600
     23 C1          -2.7100    -1.2310     0.4530 c3         1 2SW       0.035300
     24 C7          -2.4000    -2.4640     1.2600 ca         1 2SW      -0.069300
     25 C8          -1.4510    -3.3640     0.8120 ca         1 2SW      -0.100000
     26 C9          -1.1670    -4.4960     1.5520 ca         1 2SW      -0.105000
     27 C10         -1.8310    -4.7280     2.7430 ca         1 2SW      -0.037600
     28 Cl1         -1.4750    -6.1490     3.6730 cl         1 2SW      -0.046400
     29 C11         -2.7820    -3.8280     3.1910 ca         1 2SW      -0.105000
     30 C12         -3.0620    -2.6940     2.4530 ca         1 2SW      -0.100000
     31 S1          -6.8400    -1.8040     1.7670 s6         1 2SW       0.847900
     32 O4          -6.3100    -0.4920     1.8880 os         1 2SW      -0.538700
     33 O5          -7.9750    -2.0210     0.9400 o          1 2SW      -0.569800
     34 C25         -7.2070    -2.4340     3.4290 c3         1 2SW      -0.054200
     35 C26         -5.9530    -2.3370     4.3000 c3         1 2SW       0.020567
     36 C27         -8.3280    -1.6010     4.0540 c3         1 2SW       0.020567
     37 C28         -7.6500    -3.8960     3.3340 c3         1 2SW       0.020567
     38 H1          -0.5420     0.0050    -0.9380 ha         1 2SW       0.125000
     39 H2           3.1580     0.0000     1.1990 ha         1 2SW       0.107000
     40 H3           1.9240    -0.0040     3.3340 ha         1 2SW       0.101000
     41 H4          -0.5410    -0.0010     3.3320 ha         1 2SW       0.115000
     42 H5          -2.5660    -0.0090     2.2160 hc         1 2SW       0.064700
     43 H6          -2.4700     1.2010    -0.5720 hc         1 2SW       0.018200
     44 H7          -2.2580     2.1380     0.9200 hc         1 2SW       0.018200
     45 H8          -4.2630     0.8580     2.7550 hc         1 2SW       0.003700
     46 H9          -4.0300     2.5740     2.3930 hc         1 2SW       0.003700
     47 H11         -4.7660     3.3620     0.2290 hc         1 2SW       0.018367
     48 H12         -5.8310     2.1600    -0.5110 hc         1 2SW       0.018367
     49 H13         -4.2180     2.4420    -1.1790 hc         1 2SW       0.018367
     50 H14         -5.6570    -2.1670    -0.7790 h1         1 2SW       0.065700
     51 H15         -4.4420    -4.3420    -0.7960 hc         1 2SW       0.048700
     52 H16         -3.1070    -3.5800     0.0790 hc         1 2SW       0.048700
     53 H17         -3.6770    -1.8870    -2.1200 hc         1 2SW       0.003700
     54 H18         -2.2560    -2.9190    -1.9010 hc         1 2SW       0.003700
     55 H19         -3.6760    -3.5370    -2.7570 hc         1 2SW       0.003700
     56 H20         -5.9210    -3.9020     1.0420 h1         1 2SW       0.086200
     57 H21         -4.7590    -2.9810     2.0050 h1         1 2SW       0.086200
     58 H22         -2.2170    -1.2950    -0.5090 h1         1 2SW       0.035700
     59 H23         -0.9300    -3.1810    -0.1200 ha         1 2SW       0.136000
     60 H24         -0.4230    -5.2000     1.2000 ha         1 2SW       0.115000
     61 H25         -3.3010    -4.0090     4.1240 ha         1 2SW       0.115000
     62 H26         -3.8060    -1.9900     2.8040 ha         1 2SW       0.136000
     63 H27         -5.3940    -1.4490     4.0310 hc         1 2SW       0.013144
     64 H28         -5.3360    -3.2130     4.1440 hc         1 2SW       0.013144
     65 H29         -6.2410    -2.2800     5.3430 hc         1 2SW       0.013144
     66 H30         -7.9500    -0.6180     4.3090 hc         1 2SW       0.013144
     67 H31         -9.1420    -1.5010     3.3460 hc         1 2SW       0.013144
     68 H32         -8.6870    -2.0930     4.9500 hc         1 2SW       0.013144
     69 H33         -6.8130    -4.5070     3.0180 hc         1 2SW       0.013144
     70 H34         -7.9960    -4.2320     4.3040 hc         1 2SW       0.013144
     71 H35         -8.4530    -3.9830     2.6130 hc         1 2SW       0.013144
@<TRIPOS>BOND
     1     1     2 ar  
     2     1     7 ar  
     3     1    38 1   
     4     2     3 1   
     5     2     4 ar  
     6     4     5 ar  
     7     4    39 1   
     8     5     6 ar  
     9     5    40 1   
    10     6     7 ar  
    11     6    41 1   
    12     7     8 1   
    13     8     9 1   
    14     8    23 1   
    15     8    42 1   
    16     9    10 1   
    17     9    43 1   
    18     9    44 1   
    19    10    11 1   
    20    10    15 1   
    21    10    16 1   
    22    11    12 1   
    23    11    45 1   
    24    11    46 1   
    25    12    13 1   
    26    12    14 1   
    27    15    47 1   
    28    15    48 1   
    29    15    49 1   
    30    16    17 1   
    31    16    18 2   
    32    17    32 1   
    33    18    19 1   
    34    18    23 1   
    35    19    20 1   
    36    19    22 1   
    37    19    50 1   
    38    20    21 1   
    39    20    51 1   
    40    20    52 1   
    41    21    53 1   
    42    21    54 1   
    43    21    55 1   
    44    22    31 1   
    45    22    56 1   
    46    22    57 1   
    47    23    24 1   
    48    23    58 1   
    49    24    25 ar  
    50    24    30 ar  
    51    25    26 ar  
    52    25    59 1   
    53    26    27 ar  
    54    26    60 1   
    55    27    28 1   
    56    27    29 ar  
    57    29    30 ar  
    58    29    61 1   
    59    30    62 1   
    60    31    32 1   
    61    31    33 2   
    62    31    34 1   
    63    34    35 1   
    64    34    36 1   
    65    34    37 1   
    66    35    63 1   
    67    35    64 1   
    68    35    65 1   
    69    36    66 1   
    70    36    67 1   
    71    36    68 1   
    72    37    69 1   
    73    37    70 1   
    74    37    71 1   
@<TRIPOS>SUBSTRUCTURE
     1 2SW         1 TEMP              0 ****  ****    0 ROOT
