@<TRIPOS>MOLECULE
molecule
   71    73     1     0     0
SMALL
bcc


@<TRIPOS>ATOM
      1 C17          0.0000     0.0000     0.0000 ca         1 2SW      -0.123000
      2 C16          1.3840     0.0000     0.0000 ca         1 2SW       0.027400
      3 Cl2          2.2520     0.0030    -1.5030 cl         1 2SW      -0.128400
      4 C15          2.0750     0.0000     1.1980 ca         1 2SW      -0.134000
      5 C14          1.3830    -0.0010     2.3960 ca         1 2SW      -0.121000
      6 C13          0.0010    -0.0030     2.3940 ca         1 2SW      -0.116000
      7 C6          -0.6910     0.0040     1.1970 ca         1 2SW      -0.054300
      8 C2          -2.1980     0.0040     1.1980 c3         1 2SW      -0.037400
      9 C3          -2.7130     1.2580     0.4820 c3         1 2SW      -0.077400
     10 C4          -4.2330     1.3240     0.6570 c3         1 2SW      -0.086000
     11 C21         -4.5620     1.6750     2.1090 c3         1 2SW      -0.159400
     12 C23         -6.0460     1.9050     2.2450 c          1 2SW       0.903600
     13 O3          -6.5570     2.3080     3.4190 o          1 2SW      -0.838300
     14 O2          -6.7740     1.7260     1.2980 o          1 2SW      -0.838300
     15 C24         -4.8030     2.4010    -0.2680 c3         1 2SW      -0.069100
     16 C5          -4.8450    -0.0030     0.3110 c          1 2SW       0.705500
     17 O1          -6.0350    -0.0430     0.0800 o          1 2SW      -0.557500
     18 N1          -4.1510    -1.1390     0.2460 n          1 2SW      -0.507800
     19 C18         -4.8800    -2.3740    -0.0530 c3         1 2SW       0.148700
     20 C19         -3.9130    -3.4120    -0.6240 c3         1 2SW      -0.128400
     21 C22         -3.3390    -2.9010    -1.9470 c3         1 2SW      -0.094100
     22 C20         -5.5130    -2.9170     1.2300 c3         1 2SW      -0.275600
     23 C1          -2.7100    -1.2310     0.4530 c3         1 2SW       0.175000
     24 C7          -2.4000    -2.4640     1.2600 ca         1 2SW      -0.073300
     25 C8          -1.4510    -3.3640     0.8120 ca         1 2SW      -0.114500
     26 C9          -1.1670    -4.4960     1.5520 ca         1 2SW      -0.130500
     27 C10         -1.8310    -4.7280     2.7430 ca         1 2SW       0.023400
     28 Cl1         -1.4750    -6.1490     3.6730 cl         1 2SW      -0.127400
     29 C11         -2.7820    -3.8280     3.1910 ca         1 2SW      -0.130500
     30 C12         -3.0620    -2.6940     2.4530 ca         1 2SW      -0.114500
     31 S1          -6.8400    -1.8040     1.7670 s6         1 2SW       1.115000
     32 O4          -6.3100    -0.4920     1.8880 o          1 2SW      -0.556300
     33 O5          -7.9750    -2.0210     0.9400 o          1 2SW      -0.556300
     34 C25         -7.2070    -2.4340     3.4290 c3         1 2SW      -0.198200
     35 C26         -5.9530    -2.3370     4.3000 c3         1 2SW      -0.068767
     36 C27         -8.3280    -1.6010     4.0540 c3         1 2SW      -0.068767
     37 C28         -7.6500    -3.8960     3.3340 c3         1 2SW      -0.068767
     38 H1          -0.5420     0.0050    -0.9380 ha         1 2SW       0.148000
     39 H2           3.1580     0.0000     1.1990 ha         1 2SW       0.134000
     40 H3           1.9240    -0.0040     3.3340 ha         1 2SW       0.132000
     41 H4          -0.5410    -0.0010     3.3320 ha         1 2SW       0.142000
     42 H5          -2.5660    -0.0090     2.2160 hc         1 2SW       0.085700
     43 H6          -2.4700     1.2010    -0.5720 hc         1 2SW       0.043200
     44 H7          -2.2580     2.1380     0.9200 hc         1 2SW       0.043200
     45 H8          -4.2630     0.8580     2.7550 hc         1 2SW       0.027200
     46 H9          -4.0300     2.5740     2.3930 hc         1 2SW       0.027200
     47 H11         -4.7660     3.3620     0.2290 hc         1 2SW       0.044700
     48 H12         -5.8310     2.1600    -0.5110 hc         1 2SW       0.044700
     49 H13         -4.2180     2.4420    -1.1790 hc         1 2SW       0.044700
     50 H14         -5.6570    -2.1670    -0.7790 h1         1 2SW       0.087700
     51 H15         -4.4420    -4.3420    -0.7960 hc         1 2SW       0.060200
     52 H16         -3.1070    -3.5800     0.0790 hc         1 2SW       0.060200
     53 H17         -3.6770    -1.8870    -2.1200 hc         1 2SW       0.033033
     54 H18         -2.2560    -2.9190    -1.9010 hc         1 2SW       0.033033
     55 H19         -3.6760    -3.5370    -2.7570 hc         1 2SW       0.033033
     56 H20         -5.9210    -3.9020     1.0420 h1         1 2SW       0.096700
     57 H21         -4.7590    -2.9810     2.0050 h1         1 2SW       0.096700
     58 H22         -2.2170    -1.2950    -0.5090 h1         1 2SW       0.051700
     59 H23         -0.9300    -3.1810    -0.1200 ha         1 2SW       0.154000
     60 H24         -0.4230    -5.2000     1.2000 ha         1 2SW       0.141500
     61 H25         -3.3010    -4.0090     4.1240 ha         1 2SW       0.141500
     62 H26         -3.8060    -1.9900     2.8040 ha         1 2SW       0.154000
     63 H27         -5.3940    -1.4490     4.0310 hc         1 2SW       0.043811
     64 H28         -5.3360    -3.2130     4.1440 hc         1 2SW       0.043811
     65 H29         -6.2410    -2.2800     5.3430 hc         1 2SW       0.043811
     66 H30         -7.9500    -0.6180     4.3090 hc         1 2SW       0.043811
     67 H31         -9.1420    -1.5010     3.3460 hc         1 2SW       0.043811
     68 H32         -8.6870    -2.0930     4.9500 hc         1 2SW       0.043811
     69 H33         -6.8130    -4.5070     3.0180 hc         1 2SW       0.043811
     70 H34         -7.9960    -4.2320     4.3040 hc         1 2SW       0.043811
     71 H35         -8.4530    -3.9830     2.6130 hc         1 2SW       0.043811
@<TRIPOS>BOND
     1    37    34 1   
     2    35    34 1   
     3    36    34 1   
     4    34    31 1   
     5    32    31 2   
     6    31    22 1   
     7    31    33 2   
     8    22    19 1   
     9    21    20 1   
    10    19    20 1   
    11    19    18 1   
    12    29    30 ar  
    13    29    27 ar  
    14    30    24 ar  
    15    18    23 1   
    16    18    16 1   
    17    28    27 1   
    18    27    26 ar  
    19    24    23 1   
    20    24    25 ar  
    21    17    16 2   
    22    23     8 1   
    23    16    10 1   
    24    26    25 ar  
    25     6     5 ar  
    26     6     7 ar  
    27    15    10 1   
    28     5     4 ar  
    29     8     9 1   
    30     8     7 1   
    31    10     9 1   
    32    10    11 1   
    33     7     1 ar  
    34     4     2 ar  
    35     1     2 ar  
    36    11    12 1   
    37     2     3 1   
    38    12    14 1   
    39    12    13 1   
    40     1    38 1   
    41     4    39 1   
    42     5    40 1   
    43     6    41 1   
    44     8    42 1   
    45     9    43 1   
    46     9    44 1   
    47    11    45 1   
    48    11    46 1   
    49    15    47 1   
    50    15    48 1   
    51    15    49 1   
    52    19    50 1   
    53    20    51 1   
    54    20    52 1   
    55    21    53 1   
    56    21    54 1   
    57    21    55 1   
    58    22    56 1   
    59    22    57 1   
    60    23    58 1   
    61    25    59 1   
    62    26    60 1   
    63    29    61 1   
    64    30    62 1   
    65    35    63 1   
    66    35    64 1   
    67    35    65 1   
    68    36    66 1   
    69    36    67 1   
    70    36    68 1   
    71    37    69 1   
    72    37    70 1   
    73    37    71 1   
@<TRIPOS>SUBSTRUCTURE
     1 2SW         1 TEMP              0 ****  ****    0 ROOT
