@<TRIPOS>MOLECULE
molecule
   21    22     1     0     0
SMALL
bcc


@<TRIPOS>ATOM
      1 O14          0.0000     0.0000     0.0000 o          1 2SX      -0.844300
      2 C12          1.2080     0.0000     0.0000 c          1 2SX       0.891600
      3 O13          1.8780     0.0000     1.1630 o          1 2SX      -0.844300
      4 C11          1.9630    -0.0040    -1.3040 c3         1 2SX      -0.127200
      5 C9           0.9840    -0.0100    -2.4510 cc         1 2SX      -0.047400
      6 C5           0.3390     1.1600    -3.0510 ca         1 2SX      -0.068800
      7 C4           0.3960     2.5330    -2.8030 ca         1 2SX      -0.011000
      8 C1          -0.3550     3.3960    -3.5700 ca         1 2SX      -0.087900
      9 Br1         -0.2810     5.2550    -3.2380 br         1 2SX      -0.143100
     10 C8           0.5420    -1.0880    -3.1180 cd         1 2SX      -0.140100
     11 N7          -0.3330    -0.7030    -4.0980 na         1 2SX      -0.191400
     12 C6          -0.4830     0.6660    -4.0800 ca         1 2SX      -0.024200
     13 C3          -1.2340     1.5550    -4.8420 ca         1 2SX      -0.163000
     14 C2          -1.1660     2.9070    -4.5850 ca         1 2SX      -0.105000
     15 H2           2.5850     0.8810    -1.3640 hc         1 2SX       0.039200
     16 H3           2.5870    -0.8880    -1.3570 hc         1 2SX       0.039200
     17 H4           0.9850     3.1560    -2.1410 ha         1 2SX       0.150000
     18 H5           0.8350    -2.1100    -2.9120 h4         1 2SX       0.162000
     19 H6          -0.7980    -1.3240    -4.7300 hn         1 2SX       0.278700
     20 H7          -1.8970     1.2710    -5.6500 ha         1 2SX       0.114000
     21 H8          -1.7390     3.6240    -5.1610 ha         1 2SX       0.122000
@<TRIPOS>BOND
     1    11    10 1   
     2    11    12 1   
     3    13    12 ar  
     4    13    14 ar  
     5    10     5 2   
     6    12     6 ar  
     7    14     8 ar  
     8     5     6 1   
     9     5     4 1   
    10     6     7 ar  
    11     8     7 ar  
    12     8     9 1   
    13     4     2 1   
    14     1     2 1   
    15     2     3 1   
    16     4    15 1   
    17     4    16 1   
    18     7    17 1   
    19    10    18 1   
    20    11    19 1   
    21    13    20 1   
    22    14    21 1   
@<TRIPOS>SUBSTRUCTURE
     1 2SX         1 TEMP              0 ****  ****    0 ROOT
