@<TRIPOS>MOLECULE
2SX
   21    22     1     0     0
SMALL
bcc


@<TRIPOS>ATOM
      1 O14         1.3430   -2.0980   -0.5610 o         1 2SX     -0.848300
      2 C12         1.6400   -0.9370   -0.1540 c         1 2SX      0.916600
      3 O13         1.8760   -0.6580    1.0550 o         1 2SX     -0.848300
      4 C11         1.7720    0.2150   -1.1740 c3        1 2SX     -0.144200
      5 C9          0.7730    0.2010   -2.2450 cc        1 2SX     -0.083400
      6 C5          0.3120    1.3370   -3.0230 ca        1 2SX     -0.092800
      7 C4          0.6120    2.6960   -3.0210 ca        1 2SX     -0.049000
      8 C1         -0.0370    3.5300   -3.9270 ca        1 2SX     -0.065900
      9 BR1         0.3540    5.3700   -3.9460 br        1 2SX     -0.144100
     10 C8          0.0880   -0.9160   -2.7230 cd        1 2SX     -0.093100
     11 N7         -0.7610   -0.5530   -3.7820 na        1 2SX     -0.204400
     12 C6         -0.6690    0.8250   -3.9650 ca        1 2SX     -0.051200
     13 C3         -1.3120    1.6830   -4.8680 ca        1 2SX     -0.159000
     14 C2         -0.9870    3.0300   -4.8370 ca        1 2SX     -0.111000
     15 H2          2.7980    0.1340   -1.6240 hc        1 2SX      0.038200
     16 H3          1.7210    1.1900   -0.6210 hc        1 2SX      0.038200
     17 H4          1.3520    3.0860   -2.3050 ha        1 2SX      0.149000
     18 H5          0.1690   -1.9470   -2.3500 h4        1 2SX      0.226000
     19 H6         -1.4560   -1.1250   -4.1750 hn        1 2SX      0.281700
     20 H7         -2.0550    1.3020   -5.5800 ha        1 2SX      0.119000
     21 H8         -1.4840    3.7170   -5.5380 ha        1 2SX      0.124000
@<TRIPOS>BOND
     1    1    2 1   
     2    2    3 1   
     3    2    4 1   
     4    4    5 1   
     5    4   15 1   
     6    4   16 1   
     7    5    6 1   
     8    5   10 2   
     9    6    7 ar  
    10    6   12 ar  
    11    7    8 ar  
    12    7   17 1   
    13    8    9 1   
    14    8   14 ar  
    15   10   11 1   
    16   10   18 1   
    17   11   12 1   
    18   11   19 1   
    19   12   13 ar  
    20   13   14 ar  
    21   13   20 1   
    22   14   21 1   
@<TRIPOS>SUBSTRUCTURE
     1 2SX         1 TEMP              0 ****  ****    0 ROOT
