@<TRIPOS>MOLECULE
molecule
   34    36     1     0     0
SMALL
bcc


@<TRIPOS>ATOM
      1 Cl2          0.0000     0.0000     0.0000 cl         1 2SY      -0.122400
      2 C16          1.7360     0.0000     0.0000 ca         1 2SY       0.026400
      3 C13          2.4280     0.0000     1.1980 ca         1 2SY      -0.101000
      4 C20          2.4280    -0.0060    -1.1980 ca         1 2SY      -0.126000
      5 C17          3.8110    -0.0060    -1.1980 ca         1 2SY      -0.126000
      6 C14          4.5020    -0.0010     0.0000 ca         1 2SY      -0.106000
      7 C10          3.8100    -0.0010     1.1980 ca         1 2SY      -0.095300
      8 C6           4.5640    -0.0010     2.5020 c3         1 2SY       0.104600
      9 N2           4.8080    -1.3820     2.9260 na         1 2SY      -0.082400
     10 C5           4.0180    -2.0900     3.7910 cc         1 2SY      -0.134100
     11 C7           4.5220    -3.3220     3.9660 cd         1 2SY      -0.051400
     12 C11          3.9490    -4.4080     4.8390 c3         1 2SY      -0.125200
     13 C15          4.6230    -4.3760     6.1870 c          1 2SY       0.890600
     14 O19          5.4800    -3.5550     6.4150 o          1 2SY      -0.845800
     15 O18          4.2720    -5.2590     7.1350 o          1 2SY      -0.845800
     16 C3           5.7330    -3.4110     3.1460 ca         1 2SY      -0.074800
     17 C1           5.8630    -2.1630     2.5090 ca         1 2SY      -0.034200
     18 C8           6.6740    -4.4140     2.9110 ca         1 2SY      -0.050000
     19 C12          7.7230    -4.1770     2.0670 ca         1 2SY      -0.183000
     20 C9           7.8580    -2.9460     1.4400 ca         1 2SY      -0.123000
     21 C4           6.9320    -1.9460     1.6470 ca         1 2SY      -0.163000
     22 H1           1.8870     0.0380     2.1360 ha         1 2SY       0.148000
     23 H2           1.8870    -0.0090    -2.1360 ha         1 2SY       0.135000
     24 H3           4.3520     0.0100    -2.1360 ha         1 2SY       0.131000
     25 H4           5.5840     0.0560     0.0000 ha         1 2SY       0.138000
     26 H5           3.9800     0.5100     3.2570 h1         1 2SY       0.059700
     27 H6           5.5110     0.5090     2.3720 h1         1 2SY       0.059700
     28 H7           3.1210    -1.7120     4.2650 h4         1 2SY       0.160000
     29 H8           2.8850    -4.2490     4.9630 hc         1 2SY       0.038200
     30 H9           4.1180    -5.3720     4.3740 hc         1 2SY       0.038200
     31 H11          6.5750    -5.3770     3.3980 ha         1 2SY       0.140000
     32 H12          8.4590    -4.9520     1.8940 ha         1 2SY       0.113000
     33 H13          8.6940    -2.7730     0.7730 ha         1 2SY       0.107000
     34 H14          7.0470    -0.9890     1.1530 ha         1 2SY       0.102000
@<TRIPOS>BOND
     1     4     5 ar  
     2     4     2 ar  
     3     5     6 ar  
     4     1     2 1   
     5     2     3 ar  
     6     6     7 ar  
     7     3     7 ar  
     8     7     8 1   
     9     8     9 1   
    10     9    10 1   
    11     9    17 1   
    12    10    11 2   
    13    17    21 ar  
    14    17    16 ar  
    15    21    20 ar  
    16    11    16 1   
    17    11    12 1   
    18    16    18 ar  
    19    20    19 ar  
    20    12    13 1   
    21    18    19 ar  
    22    14    13 1   
    23    13    15 1   
    24     3    22 1   
    25     4    23 1   
    26     5    24 1   
    27     6    25 1   
    28     8    26 1   
    29     8    27 1   
    30    10    28 1   
    31    12    29 1   
    32    12    30 1   
    33    18    31 1   
    34    19    32 1   
    35    20    33 1   
    36    21    34 1   
@<TRIPOS>SUBSTRUCTURE
     1 2SY         1 TEMP              0 ****  ****    0 ROOT
