@<TRIPOS>MOLECULE
2SY
   34    36     1     0     0
SMALL
bcc


@<TRIPOS>ATOM
      1 CL2         0.3670   -1.3260    0.3920 cl        1 2SY     -0.098400
      2 C16         1.8850   -0.5670    0.2600 ca        1 2SY      0.018400
      3 C13         2.7990   -0.6570    1.3130 ca        1 2SY     -0.096000
      4 C20         2.1990    0.1400   -0.9050 ca        1 2SY     -0.134000
      5 C17         3.4420    0.7600   -1.0110 ca        1 2SY     -0.133000
      6 C14         4.3620    0.6750    0.0320 ca        1 2SY     -0.128000
      7 C10         4.0430   -0.0290    1.1980 ca        1 2SY     -0.098300
      8 C6          5.0320   -0.0650    2.3350 c3        1 2SY      0.095600
      9 N2          5.2830   -1.3370    2.9300 na        1 2SY     -0.096400
     10 C5          4.4420   -1.9460    3.8900 cc        1 2SY     -0.102100
     11 C7          4.7790   -3.2840    4.0550 cd        1 2SY     -0.080400
     12 C11         4.1590   -4.2370    4.9800 c3        1 2SY     -0.143200
     13 C15         3.3820   -3.5970    6.1500 c         1 2SY      0.916600
     14 O19         2.6870   -2.5580    5.9440 o         1 2SY     -0.849300
     15 O18         3.4550   -4.1780    7.2690 o         1 2SY     -0.849300
     16 C3          5.8590   -3.5650    3.1210 ca        1 2SY     -0.083800
     17 C1          6.1240   -2.3320    2.4040 ca        1 2SY     -0.048200
     18 C8          6.6150   -4.6960    2.8330 ca        1 2SY     -0.085000
     19 C12         7.6000   -4.6230    1.8530 ca        1 2SY     -0.176000
     20 C9          7.8450   -3.4310    1.1580 ca        1 2SY     -0.136000
     21 C4          7.1190   -2.2750    1.4210 ca        1 2SY     -0.154000
     22 H1          2.5480   -1.2230    2.2290 ha        1 2SY      0.183000
     23 H2          1.4740    0.2050   -1.7300 ha        1 2SY      0.136000
     24 H3          3.6980    1.3150   -1.9250 ha        1 2SY      0.125000
     25 H4          5.3440    1.1630   -0.0640 ha        1 2SY      0.128000
     26 H5          4.6370    0.6180    3.1460 h1        1 2SY      0.060700
     27 H6          6.0180    0.3490    1.9720 h1        1 2SY      0.060700
     28 H7          3.6780   -1.3850    4.4470 h4        1 2SY      0.223000
     29 H8          3.4260   -4.8740    4.4150 hc        1 2SY      0.038200
     30 H9          4.9430   -4.9170    5.4030 hc        1 2SY      0.038200
     31 H11         6.4310   -5.6310    3.3820 ha        1 2SY      0.133000
     32 H12         8.2000   -5.5130    1.6170 ha        1 2SY      0.111000
     33 H13         8.6280   -3.4100    0.3870 ha        1 2SY      0.108000
     34 H14         7.3210   -1.3460    0.8730 ha        1 2SY      0.115000
@<TRIPOS>BOND
     1    1    2 1   
     2    2    3 ar  
     3    2    4 ar  
     4    3    7 ar  
     5    3   22 1   
     6    4    5 ar  
     7    4   23 1   
     8    5    6 ar  
     9    5   24 1   
    10    6    7 ar  
    11    6   25 1   
    12    7    8 1   
    13    8    9 1   
    14    8   26 1   
    15    8   27 1   
    16    9   10 1   
    17    9   17 1   
    18   10   11 2   
    19   10   28 1   
    20   11   12 1   
    21   11   16 1   
    22   12   13 1   
    23   12   29 1   
    24   12   30 1   
    25   13   14 1   
    26   13   15 1   
    27   16   17 ar  
    28   16   18 ar  
    29   17   21 ar  
    30   18   19 ar  
    31   18   31 1   
    32   19   20 ar  
    33   19   32 1   
    34   20   21 ar  
    35   20   33 1   
    36   21   34 1   
@<TRIPOS>SUBSTRUCTURE
     1 2SY         1 TEMP              0 ****  ****    0 ROOT
