@<TRIPOS>MOLECULE
molecule
   70    75     1     0     0
SMALL
bcc


@<TRIPOS>ATOM
      1 C1           0.0000     0.0000     0.0000 c3         1 2SZ       0.097100
      2 N2           1.4690     0.0000     0.0000 n3         1 2SZ      -0.702600
      3 C3           1.9950     0.0000     1.3730 c3         1 2SZ       0.105300
      4 C4           3.5230    -0.0790     1.3290 c3         1 2SZ       0.186300
      5 N5           4.0490     1.0610     0.5670 n3         1 2SZ      -0.762600
      6 C6           3.5230     1.0620    -0.8050 c3         1 2SZ       0.186300
      7 C7           1.9950     1.1420    -0.7620 c3         1 2SZ       0.105300
      8 C8           5.5190     1.0620     0.5670 c3         1 2SZ       0.102500
      9 C9           6.0200     2.3620    -0.0040 ca         1 2SZ       0.446600
     10 C10          6.3510     3.3990     0.8500 ca         1 2SZ      -0.239300
     11 C11          6.8160     4.5900     0.3220 ca         1 2SZ      -0.067000
     12 C12          6.9360     4.6980    -1.0700 ca         1 2SZ      -0.112300
     13 C13          6.5810     3.6040    -1.8640 ca         1 2SZ       0.450200
     14 N14          6.1420     2.4920    -1.3120 nb         1 2SZ      -0.694000
     15 C15          7.4120     5.9080    -1.6690 cg         1 2SZ      -0.083000
     16 C16          7.8050     6.9090    -2.1410 ch         1 2SZ      -0.087000
     17 C17          8.2670     7.9330    -3.1900 ca         1 2SZ       0.026000
     18 C18          8.1490     8.3310    -4.4970 ca         1 2SZ      -0.134000
     19 C19          8.7290     9.3160    -5.0950 ca         1 2SZ      -0.124000
     20 C20          9.4710    10.0080    -4.5020 cp         1 2SZ       0.022000
     21 C21          9.8680     9.9250    -3.1050 ca         1 2SZ      -0.124000
     22 C22          9.3510     8.9250    -2.2790 ca         1 2SZ      -0.134000
     23 C23         10.1190    11.2700    -5.5600 cp         1 2SZ      -0.115300
     24 C24         10.9110    11.2990    -6.3040 ca         1 2SZ      -0.082000
     25 C25         11.4030    12.2360    -7.1000 ca         1 2SZ      -0.321900
     26 C26         10.7060    13.6190    -6.9560 ca         1 2SZ       0.453200
     27 N27          9.5960    13.5370    -5.8990 nb         1 2SZ      -0.607000
     28 C28          9.4430    12.3610    -5.3310 ca         1 2SZ       0.454800
     29 N29          8.2970    12.8030    -4.4290 na         1 2SZ      -0.271100
     30 C30          6.8610    12.2790    -4.4220 cc         1 2SZ       0.435700
     31 N31          6.1640    12.8150    -3.5950 nd         1 2SZ      -0.512100
     32 C32          7.1430    13.1770    -2.5530 ca         1 2SZ       0.109400
     33 C33          8.2910    12.8110    -2.9610 ca         1 2SZ      -0.054200
     34 C34          9.5860    13.2880    -2.4050 ca         1 2SZ      -0.099000
     35 C35          9.2840    13.1880    -1.0000 ca         1 2SZ      -0.183000
     36 C36          8.0720    13.2860    -0.1600 ca         1 2SZ      -0.171000
     37 C37          6.7090    13.3390    -1.2020 ca         1 2SZ      -0.052000
     38 C38         12.2910    11.8590    -8.3170 c          1 2SZ       0.822700
     39 O39         12.2750    11.2260    -8.9730 o          1 2SZ      -0.329100
     40 N40         12.9250    13.2110    -9.0150 ns         1 2SZ      -0.690400
     41 O41         13.4610    13.0030   -10.1920 oh         1 2SZ      -0.459100
     42 H1          -0.3560     0.9310    -0.4240 h1         1 2SZ       0.033033
     43 H2          -0.8100    -0.4530     0.5590 h1         1 2SZ       0.033033
     44 H3          -0.2470    -0.6960    -0.7930 h1         1 2SZ       0.033033
     45 H5           1.2300     0.5300     1.9260 h1         1 2SZ       0.039200
     46 H6           1.6510    -0.9260     1.8180 h1         1 2SZ       0.039200
     47 H7           3.7010     0.0550     2.3900 h1         1 2SZ       0.077700
     48 H8           3.7910    -0.7410     0.5150 h1         1 2SZ       0.077700
     49 H10          3.6710     1.9740    -1.3720 h1         1 2SZ       0.077700
     50 H11          3.6690     0.0550    -1.1760 h1         1 2SZ       0.077700
     51 H12          1.2130     1.8910    -0.7680 h1         1 2SZ       0.039200
     52 H13          1.8350     0.6150    -1.6950 h1         1 2SZ       0.039200
     53 H14          6.0170     0.4160    -0.1440 h1         1 2SZ       0.053700
     54 H15          5.6920     0.6500     1.5540 h1         1 2SZ       0.053700
     55 H16          6.2260     3.1590     1.8990 ha         1 2SZ       0.150000
     56 H17          7.0120     5.3970     1.0170 ha         1 2SZ       0.146000
     57 H18          6.6120     3.7620    -2.9350 h4         1 2SZ       0.030100
     58 H19          7.9460     7.2870    -4.7070 ha         1 2SZ       0.157500
     59 H20          8.2730     9.3040    -6.0770 ha         1 2SZ       0.145500
     60 H21         10.8280    10.2930    -2.7660 ha         1 2SZ       0.145500
     61 H22          9.8170     8.7420    -1.3180 ha         1 2SZ       0.157500
     62 H23         10.8250    10.3520    -6.8240 ha         1 2SZ       0.137000
     63 H24         11.0920    14.5670    -7.3090 h4         1 2SZ       0.064100
     64 H25          6.9340    11.8880    -5.4290 h5         1 2SZ       0.061800
     65 H26         10.6180    13.3320    -2.7310 ha         1 2SZ       0.172000
     66 H27         10.0720    13.2590    -0.2600 ha         1 2SZ       0.092000
     67 H28          8.2570    12.8960     0.8330 ha         1 2SZ       0.163000
     68 H29          5.7820    13.3490    -0.6430 ha         1 2SZ       0.174000
     69 H30         12.6440    14.1180    -8.6980 hn         1 2SZ       0.314500
     70 H31         13.4810    12.1860   -10.6630 ho         1 2SZ       0.420000
@<TRIPOS>BOND
     1    41    40 1
     2    40    38 1
     3    39    38 2
     4    38    25 1
     5    25    26 ar
     6    25    24 ar
     7    26    27 ar
     8    24    23 ar
     9    27    28 ar
    10    23    28 ar
    11    23    20 1
    12    28    29 1
    13    21    20 ar
    14    21    22 ar
    15    29    30 1
    16    29    33 1
    17    20    19 ar
    18    30    31 2
    19    22    17 ar
    20    33    34 ar
    21    33    32 ar
    22    34    35 ar
    23    31    32 1
    24    19    18 ar
    25    32    37 ar
    26    35    36 ar
    27    17    18 ar
    28    17    16 1
    29    37    36 ar
    30    16    15 3
    31    15    12 1
    32    11    12 ar
    33    11    10 ar
    34    12    13 ar
    35    10     9 ar
    36    13    14 ar
    37     9    14 ar
    38     9     8 1
    39     4     3 1
    40     4     5 1
    41     8     5 1
    42     3     2 1
    43     5     6 1
    44     2     1 1
    45     2     7 1
    46     6     7 1
    47     1    42 1
    48     1    43 1
    49     1    44 1
    50     3    45 1
    51     3    46 1
    52     4    47 1
    53     4    48 1
    54     6    49 1
    55     6    50 1
    56     7    51 1
    57     7    52 1
    58     8    53 1
    59     8    54 1
    60    10    55 1
    61    11    56 1
    62    13    57 1
    63    18    58 1
    64    19    59 1
    65    21    60 1
    66    22    61 1
    67    24    62 1
    68    26    63 1
    69    30    64 1
    70    34    65 1
    71    35    66 1
    72    36    67 1
    73    37    68 1
    74    40    69 1
    75    41    70 1
@<TRIPOS>SUBSTRUCTURE
     1 2SZ         1 TEMP              0 ****  ****    0 ROOT
