@<TRIPOS>MOLECULE
molecule
   28    30     1     0     0
SMALL
bcc


@<TRIPOS>ATOM
      1 C1           0.0000     0.0000     0.0000 ca         1 2T0       0.241100
      2 C2           1.3890     0.0000     0.0000 ca         1 2T0      -0.145000
      3 C3           2.0920     0.0000     1.1900 ca         1 2T0      -0.129000
      4 C4           1.4170     0.0100     2.3960 ca         1 2T0      -0.154300
      5 C52          0.0230     0.0290     2.3950 ca         1 2T0      -0.130500
      6 C6          -0.6880     0.0110     1.2040 ca         1 2T0      -0.112000
      7 P8          -1.0060     1.4600    -1.7530 p5         1 2T0       1.115900
      8 C9           0.0310     0.4260     4.8230 cc         1 2T0      -0.128700
      9 C10         -0.6800     0.0920     3.7120 cd         1 2T0       0.476800
     10 S11         -1.0390     0.3950     6.2110 ss         1 2T0      -0.409300
     11 C12         -2.3850    -0.0580     5.1690 cc         1 2T0       0.713300
     12 N13         -1.9700    -0.1520     3.9440 nd         1 2T0      -0.645000
     13 N14         -3.6850    -0.2790     5.5900 nv         1 2T0      -1.029500
     14 O18         -0.6820    -0.0080    -1.1750 os         1 2T0      -0.434500
     15 C20          1.4980     0.7700     4.7900 c3         1 2T0       0.013900
     16 C21          2.1900    -0.0280     3.6870 c3         1 2T0      -0.011100
     17 O26         -2.0090     2.2230    -0.7500 o          1 2T0      -0.880833
     18 O27          0.2520     2.2310    -1.8730 o          1 2T0      -0.880833
     19 O28         -1.6950     1.3270    -3.2020 o          1 2T0      -0.880833
     20 H2           1.9250    -0.0090    -0.9410 ha         1 2T0       0.146000
     21 H3           3.1750    -0.0000     1.1760 ha         1 2T0       0.095000
     22 H6          -1.7720     0.0110     1.2150 ha         1 2T0       0.171000
     23 HN14        -4.3370     0.4800     5.6230 hn         1 2T0       0.430300
     24 HN1A        -3.9690    -1.1950     5.8780 hn         1 2T0       0.430300
     25 H20          1.6030     1.8270     4.5730 hc         1 2T0       0.041200
     26 H7           1.9400     0.5040     5.7420 hc         1 2T0       0.041200
     27 H21          2.2870    -1.0590     4.0070 hc         1 2T0       0.027200
     28 H9           3.1760     0.3880     3.5180 hc         1 2T0       0.027200
@<TRIPOS>BOND
     1     1     6 ar  
     2     2     1 ar  
     3     2     3 ar  
     4     3     4 ar  
     5     4    16 1   
     6     4     5 ar  
     7     5     9 1   
     8     6     5 ar  
     9     7    17 1   
    10     8    10 1   
    11     9     8 2   
    12     9    12 1   
    13    10    11 1   
    14    11    13 1   
    15    12    11 2   
    16    14     1 1   
    17    14     7 1   
    18    15     8 1   
    19    16    15 1   
    20    18     7 1   
    21    19     7 1   
    22     2    20 1   
    23     3    21 1   
    24     6    22 1   
    25    13    23 1   
    26    13    24 1   
    27    15    25 1   
    28    15    26 1   
    29    16    27 1   
    30    16    28 1   
@<TRIPOS>SUBSTRUCTURE
     1 2T0         1 TEMP              0 ****  ****    0 ROOT
