@<TRIPOS>MOLECULE
molecule
   46    48     1     0     0
SMALL
bcc


@<TRIPOS>ATOM
      1 N1           0.0000     0.0000     0.0000 n          1 2T1      -0.512800
      2 N3          -2.0300     0.8610    -0.7670 ns         1 2T1      -0.457100
      3 C4           2.5310    -2.3040     4.0850 ca         1 2T1      -0.183300
      4 C5           3.0020    -2.3220     5.3860 ca         1 2T1      -0.086000
      5 C6           2.7800    -1.2420     6.2170 ca         1 2T1      -0.147000
      6 C7           1.3340    -1.1790     2.1990 c3         1 2T1      -0.043400
      7 C8          -0.1890    -1.0360     2.2010 c3         1 2T1      -0.091400
      8 C10          1.4690     0.0000     0.0000 c3         1 2T1       0.117000
      9 C13         -2.7310     1.7640    -1.5610 ca         1 2T1       0.087600
     10 C15         -3.8960     1.3570    -2.2300 ca         1 2T1      -0.139600
     11 C17         -2.2840     3.0720    -1.6910 ca         1 2T1      -0.162000
     12 C21         -4.3840    -0.0260    -2.0960 c          1 2T1       0.892200
     13 O3          -5.5570    -0.3840    -2.6530 o          1 2T1      -0.844800
     14 O2          -3.7280    -0.8450    -1.4820 o          1 2T1      -0.844800
     15 C16         -4.5900     2.2740    -3.0240 ca         1 2T1      -0.080000
     16 C19         -4.1300     3.5670    -3.1450 ca         1 2T1      -0.183000
     17 C18         -2.9820     3.9650    -2.4790 ca         1 2T1      -0.139000
     18 C14         -0.6870     0.9330    -0.6890 c          1 2T1       0.785100
     19 O1          -0.0940     1.8410    -1.2400 o          1 2T1      -0.684100
     20 C11          1.9630     0.0000     1.4510 c3         1 2T1      -0.091400
     21 C9          -0.7060    -1.0410     0.7580 c3         1 2T1       0.117000
     22 C3           1.8420    -1.2010     3.6170 ca         1 2T1      -0.015300
     23 C2           1.6180    -0.1210     4.4490 ca         1 2T1      -0.128000
     24 C1           2.0850    -0.1420     5.7500 ca         1 2T1      -0.101000
     25 F1           1.5480    -4.0100     2.7600 f          1 2T1      -0.224300
     26 F3           3.5090    -3.0680     2.0630 f          1 2T1      -0.224300
     27 F2           3.4930    -4.4640     3.8720 f          1 2T1      -0.224300
     28 HN3         -2.5270     0.1890    -0.2160 hn         1 2T1       0.358500
     29 H5           3.5450    -3.1850     5.7530 ha         1 2T1       0.143000
     30 H6           3.1480    -1.2590     7.2360 ha         1 2T1       0.131000
     31 H7           1.6050    -2.1020     1.7010 hc         1 2T1       0.068700
     32 H8          -0.6270    -1.8660     2.7420 hc         1 2T1       0.048450
     33 H8A         -0.4630    -0.1030     2.6780 hc         1 2T1       0.048450
     34 H10          1.8310     0.8870    -0.5060 h1         1 2T1       0.062950
     35 H10A         1.8310    -0.8870    -0.5060 h1         1 2T1       0.062950
     36 H17         -1.3880     3.3920    -1.1740 ha         1 2T1       0.148000
     37 H16         -5.4890     1.9680    -3.5450 ha         1 2T1       0.152000
     38 H19         -4.6690     4.2760    -3.7610 ha         1 2T1       0.103000
     39 H18         -2.6280     4.9840    -2.5780 ha         1 2T1       0.103000
     40 H11          1.6730     0.9270     1.9300 hc         1 2T1       0.048450
     41 H11A         3.0410    -0.0990     1.4640 hc         1 2T1       0.048450
     42 H9          -0.5170    -2.0080     0.3080 h1         1 2T1       0.062950
     43 H9A         -1.7700    -0.8340     0.7540 h1         1 2T1       0.062950
     44 H2           1.0750     0.7420     4.0820 ha         1 2T1       0.148000
     45 H1           1.9100     0.7050     6.4020 ha         1 2T1       0.131000
     46 C12          2.7750    -3.4820     3.1790 c3         1 2T1       0.675200
@<TRIPOS>BOND
     1    21     1 1
     2    18     1 1
     3     1     8 1
     4     9     2 1
     5     2    18 1
     6     2    28 1
     7    22     3 ar
     8     4     3 ar
     9     3    46 1
    10     5     4 ar
    11     4    29 1
    12    24     5 ar
    13     5    30 1
    14     7     6 1
    15    22     6 1
    16     6    20 1
    17     6    31 1
    18     7    21 1
    19     7    32 1
    20     7    33 1
    21    20     8 1
    22     8    34 1
    23     8    35 1
    24    10     9 ar
    25     9    11 ar
    26    12    10 1
    27    15    10 ar
    28    17    11 ar
    29    11    36 1
    30    14    12 1
    31    12    13 1
    32    15    16 ar
    33    15    37 1
    34    16    17 ar
    35    16    38 1
    36    17    39 1
    37    18    19 2
    38    20    40 1
    39    20    41 1
    40    21    42 1
    41    21    43 1
    42    23    22 ar
    43    24    23 ar
    44    23    44 1
    45    24    45 1
    46    25    46 1
    47    46    27 1
    48    46    26 1
@<TRIPOS>SUBSTRUCTURE
     1 2T1         1 TEMP              0 ****  ****    0 ROOT
