@<TRIPOS>MOLECULE
molecule
   36    38     1     0     0
SMALL
bcc


@<TRIPOS>ATOM
      1 O3           0.0000     0.0000     0.0000 o          1 2T2      -0.848300
      2 C2           1.3420     0.0000     0.0000 c          1 2T2       0.910600
      3 O1           1.9470     0.0000     1.0460 o          1 2T2      -0.848300
      4 C4           2.0960    -0.0020    -1.3060 c3         1 2T2      -0.433200
      5 C5           3.5760    -0.0030    -1.0310 cc         1 2T2       0.042600
      6 C22          4.4140    -1.1760    -0.7710 ca         1 2T2      -0.048800
      7 C21          4.1660    -2.5470    -0.6940 ca         1 2T2      -0.014000
      8 C20          5.1920    -3.4090    -0.4270 ca         1 2T2      -0.210000
      9 C19          6.4800    -2.9320    -0.2300 ca         1 2T2      -0.132000
     10 C18          6.7480    -1.5810    -0.3010 ca         1 2T2      -0.175000
     11 C17          5.7190    -0.6870    -0.5720 ca         1 2T2      -0.014200
     12 N7           5.6630     0.6830    -0.7040 na         1 2T2      -0.080400
     13 C6           4.3810     1.0720    -0.9840 cd         1 2T2      -0.177100
     14 C8           6.8080     1.5880    -0.5760 c3         1 2T2      -0.081400
     15 C9           7.5360     1.6660    -1.8930 ca         1 2T2      -0.191300
     16 C14          7.1770     2.6220    -2.8230 ca         1 2T2      -0.151000
     17 C13          7.8520     2.6940    -4.0410 ca         1 2T2       0.015000
     18 C15          7.4860     3.6830    -5.0100 cg         1 2T2      -0.129000
     19 C16          7.1740     4.5030    -5.7890 c1         1 2T2      -0.128500
     20 C12          8.8860     1.7960    -4.3130 ca         1 2T2      -0.107000
     21 C11          9.2350     0.8460    -3.3770 ca         1 2T2      -0.150000
     22 C10          8.5650     0.7830    -2.1670 ca         1 2T2      -0.102000
     23 H2           1.6830     0.7550    -1.9620 hc         1 2T2       0.138700
     24 H3           3.1410     0.2130    -1.1200 hc         1 2T2       0.138700
     25 H4           3.3040    -3.1780    -0.8770 ha         1 2T2       0.148000
     26 H5           5.0330    -4.4770    -0.3410 ha         1 2T2       0.114000
     27 H6           7.2470    -3.6590     0.0100 ha         1 2T2       0.108000
     28 H7           7.8300    -1.5410    -0.3030 ha         1 2T2       0.113000
     29 H8           4.4490     1.7490    -1.8260 h4         1 2T2       0.130000
     30 H9           6.8900     2.1950    -1.4700 h1         1 2T2       0.193200
     31 H10          7.7140     1.0080    -0.4490 h1         1 2T2       0.193200
     32 H11          6.4060     3.3450    -2.5850 ha         1 2T2       0.164000
     33 H12          6.8950     5.2500    -6.5230 ha         1 2T2       0.167500
     34 H13          9.4230     2.2150    -5.1560 ha         1 2T2       0.141000
     35 H14         10.0020     0.1500    -3.6950 ha         1 2T2       0.135000
     36 H15          9.3250     0.1270    -1.7600 ha         1 2T2       0.169000
@<TRIPOS>BOND
     1    20    21 ar  
     2    20    17 ar  
     3    21    22 ar  
     4    19    18 3   
     5    18    17 1   
     6    17    16 ar  
     7    22    15 ar  
     8    16    15 ar  
     9    15    14 1   
    10    14    12 1   
    11    12    13 1   
    12    12    11 1   
    13    13     5 2   
    14    11    10 ar  
    15    11     6 ar  
    16    10     9 ar  
    17     5     6 1   
    18     5     4 1   
    19     6     7 ar  
    20     9     8 ar  
    21     4     2 1   
    22     3     2 1   
    23     7     8 ar  
    24     2     1 1   
    25     4    23 1   
    26     4    24 1   
    27     7    25 1   
    28     8    26 1   
    29     9    27 1   
    30    10    28 1   
    31    13    29 1   
    32    14    30 1   
    33    14    31 1   
    34    16    32 1   
    35    19    33 1   
    36    20    34 1   
    37    21    35 1   
    38    22    36 1   
@<TRIPOS>SUBSTRUCTURE
     1 2T2         1 TEMP              0 ****  ****    0 ROOT
