@<TRIPOS>MOLECULE
2T2
   36    38     1     0     0
SMALL
bcc


@<TRIPOS>ATOM
      1 O3          0.5600    1.4990   -0.1140 o         1 2T2     -0.849800
      2 C2          1.7340    1.5060   -0.5820 c         1 2T2      0.916600
      3 O1          2.4320    2.5550   -0.7040 o         1 2T2     -0.849800
      4 C4          2.3000    0.1530   -1.0610 c3        1 2T2     -0.142200
      5 C5          3.7310   -0.0470   -0.8100 cc        1 2T2     -0.081400
      6 C22         4.4410   -1.3170   -0.8350 ca        1 2T2     -0.083800
      7 C21         4.0520   -2.6360   -1.0460 ca        1 2T2     -0.085000
      8 C20         5.0110   -3.6420   -1.0000 ca        1 2T2     -0.176000
      9 C19         6.3570   -3.3500   -0.7390 ca        1 2T2     -0.136000
     10 C18         6.7870   -2.0480   -0.5110 ca        1 2T2     -0.153000
     11 C17         5.8340   -1.0230   -0.5550 ca        1 2T2     -0.048200
     12 N7          5.9440    0.3550   -0.3080 na        1 2T2     -0.095400
     13 C6          4.6700    0.9340   -0.5200 cd        1 2T2     -0.100100
     14 C8          7.1650    1.0960   -0.2780 c3        1 2T2      0.095600
     15 C9          7.7560    1.4870   -1.6070 ca        1 2T2     -0.111300
     16 C14         6.9680    2.1000   -2.5850 ca        1 2T2     -0.077000
     17 C13         7.5430    2.5030   -3.8010 ca        1 2T2      0.019000
     18 C15         6.7490    3.1220   -4.7870 cg        1 2T2     -0.115000
     19 C16         6.0660    3.6450   -5.6190 c1        1 2T2     -0.143500
     20 C12         8.9120    2.2870   -4.0290 ca        1 2T2     -0.114000
     21 C11         9.6900    1.6730   -3.0510 ca        1 2T2     -0.145000
     22 C10         9.1170    1.2710   -1.8450 ca        1 2T2     -0.119000
     23 H2          1.7140   -0.6710   -0.5740 hc        1 2T2      0.037200
     24 H3          2.1100    0.0950   -2.1670 hc        1 2T2      0.037200
     25 H4          2.9960   -2.8680   -1.2440 ha        1 2T2      0.132000
     26 H5          4.7130   -4.6860   -1.1690 ha        1 2T2      0.111000
     27 H6          7.0890   -4.1690   -0.7140 ha        1 2T2      0.108000
     28 H7          7.8430   -1.8310   -0.3060 ha        1 2T2      0.115000
     29 H8          4.4870    2.0120   -0.4070 h4        1 2T2      0.223000
     30 H9          7.9240    0.4860    0.2940 h1        1 2T2      0.058700
     31 H10         6.9680    2.0490    0.2990 h1        1 2T2      0.058700
     32 H11         5.8900    2.2630   -2.4040 ha        1 2T2      0.177000
     33 H12         5.4460    4.1060   -6.3450 ha        1 2T2      0.162500
     34 H13         9.3640    2.6000   -4.9800 ha        1 2T2      0.129000
     35 H14        10.7600    1.5000   -3.2330 ha        1 2T2      0.123000
     36 H15         9.7380    0.7810   -1.0810 ha        1 2T2      0.125000
@<TRIPOS>BOND
     1    1    2 1   
     2    2    3 1   
     3    2    4 1   
     4    4    5 1   
     5    4   23 1   
     6    4   24 1   
     7    5    6 1   
     8    5   13 2   
     9    6    7 ar  
    10    6   11 ar  
    11    7    8 ar  
    12    7   25 1   
    13    8    9 ar  
    14    8   26 1   
    15    9   10 ar  
    16    9   27 1   
    17   10   11 ar  
    18   10   28 1   
    19   11   12 1   
    20   12   13 1   
    21   12   14 1   
    22   13   29 1   
    23   14   15 1   
    24   14   30 1   
    25   14   31 1   
    26   15   16 ar  
    27   15   22 ar  
    28   16   17 ar  
    29   16   32 1   
    30   17   18 1   
    31   17   20 ar  
    32   18   19 3   
    33   19   33 1   
    34   20   21 ar  
    35   20   34 1   
    36   21   22 ar  
    37   21   35 1   
    38   22   36 1   
@<TRIPOS>SUBSTRUCTURE
     1 2T2         1 TEMP              0 ****  ****    0 ROOT
