@<TRIPOS>MOLECULE
molecule
   26    26     1     0     0
SMALL
bcc


@<TRIPOS>ATOM
      1 O4           0.0000     0.0000     0.0000 o          1 2T3      -0.834300
      2 C4           1.3570     0.0000     0.0000 c          1 2T3       0.884600
      3 O41          2.0330     0.0260    -1.0180 o          1 2T3      -0.834300
      4 C3           1.8960     0.0000     1.4150 c3         1 2T3       0.052100
      5 O3           3.3110     0.1240     1.3500 oh         1 2T3      -0.598800
      6 C2           1.5340    -1.2900     2.1580 c3         1 2T3       0.099100
      7 O2           2.0470    -2.4060     1.4440 oh         1 2T3      -0.542800
      8 C1           2.1130    -1.2950     3.5730 c          1 2T3       0.651100
      9 O11          2.9330    -2.1370     3.9230 o          1 2T3      -0.575100
     10 N1           1.5740    -0.2680     4.3440 ns         1 2T3      -0.500100
     11 C16          1.8670     0.0400     5.6940 ca         1 2T3       0.091600
     12 C17          1.2200     1.1050     6.3000 ca         1 2T3      -0.178000
     13 C18          1.5070     1.4090     7.6310 ca         1 2T3      -0.107000
     14 C19          2.4360     0.6450     8.3360 ca         1 2T3      -0.179000
     15 C20          3.0790    -0.4240     7.7110 ca         1 2T3      -0.107000
     16 C21          2.7910    -0.7290     6.3810 ca         1 2T3      -0.178000
     17 H3           1.4880     0.8470     1.9520 h1         1 2T3       0.016700
     18 HO3          3.5450     1.0360     1.2940 ho         1 2T3       0.387000
     19 H2           0.4560    -1.3730     2.2170 h1         1 2T3       0.069700
     20 HO2          1.4700    -3.1430     1.5560 ho         1 2T3       0.387000
     21 HN1          0.9040     0.3200     3.8900 hn         1 2T3       0.326500
     22 H17          0.5000     1.6950     5.7460 ha         1 2T3       0.154500
     23 H18          1.0080     2.2400     8.1160 ha         1 2T3       0.122000
     24 H19          2.6590     0.8820     9.3700 ha         1 2T3       0.117000
     25 H20          3.8000    -1.0180     8.2590 ha         1 2T3       0.122000
     26 H21          3.2870    -1.5580     5.8900 ha         1 2T3       0.154500
@<TRIPOS>BOND
     1     1     2 1   
     2     2     3 1   
     3     2     4 1   
     4     4     6 1   
     5     4     5 1   
     6     4    17 1   
     7     5    18 1   
     8     6     8 1   
     9     6     7 1   
    10     6    19 1   
    11     7    20 1   
    12     8    10 1   
    13     8     9 2   
    14    10    11 1   
    15    10    21 1   
    16    11    12 ar  
    17    11    16 ar  
    18    12    13 ar  
    19    12    22 1   
    20    13    14 ar  
    21    13    23 1   
    22    14    15 ar  
    23    14    24 1   
    24    15    16 ar  
    25    15    25 1   
    26    16    26 1   
@<TRIPOS>SUBSTRUCTURE
     1 2T3         1 TEMP              0 ****  ****    0 ROOT
