@<TRIPOS>MOLECULE
molecule
   28    30     1     0     0
SMALL
bcc


@<TRIPOS>ATOM
      1 C1           0.0000     0.0000     0.0000 ca         1 2T4       0.229100
      2 C2           1.3850     0.0000     0.0000 ca         1 2T4      -0.010000
      3 C3           2.0810     0.0000     1.1950 ca         1 2T4      -0.155000
      4 C4           1.3990     0.0010     2.3990 ca         1 2T4      -0.192000
      5 C5           0.0200     0.0010     2.4090 ca         1 2T4      -0.095300
      6 C6          -0.6920     0.0000     1.2170 ca         1 2T4      -0.205500
      7 C7          -0.9960     0.0020     3.5220 c3         1 2T4       0.071200
      8 C8          -2.3470     0.0030     2.8400 cc         1 2T4      -0.172700
      9 C9          -2.1590     0.0010     1.5070 cd         1 2T4       0.498800
     10 S10         -4.0770     0.0040     3.1820 ss         1 2T4      -0.412300
     11 C11         -4.4190     0.0040     1.4570 cc         1 2T4       0.719300
     12 N12         -3.3100     0.0010     0.7990 nd         1 2T4      -0.625000
     13 N13         -5.6850     0.0030     0.8930 nv         1 2T4      -1.027500
     14 O14         -0.6830     0.0060    -1.1740 os         1 2T4      -0.276900
     15 C15          0.0910     0.0100    -2.3760 c3         1 2T4      -0.040800
     16 P16          0.7930    -1.6480    -2.6530 p5         1 2T4       1.002700
     17 O17         -0.4000    -2.7210    -2.7880 o          1 2T4      -0.881833
     18 O18          1.6660    -1.6430    -4.0060 o          1 2T4      -0.881833
     19 O19          1.6580    -2.0150    -1.5100 o          1 2T4      -0.881833
     20 H2           2.0580     0.6550    -0.5400 ha         1 2T4       0.126000
     21 H3           3.1560    -0.0830     1.2980 ha         1 2T4       0.115000
     22 H4           2.0020    -0.0020     3.2990 ha         1 2T4       0.089000
     23 H7          -0.8850    -0.8880     4.1300 hc         1 2T4       0.042700
     24 H7A         -0.8830     0.8930     4.1280 hc         1 2T4       0.042700
     25 HN13        -6.1200     0.8680     0.6400 hn         1 2T4       0.429800
     26 HN1A        -6.1690    -0.8610     0.7520 hn         1 2T4       0.429800
     27 H15         -0.5430     0.2780    -3.2120 h1         1 2T4       0.030700
     28 H15A         0.8940     0.7320    -2.2850 h1         1 2T4       0.030700
@<TRIPOS>BOND
     1     1     2 ar  
     2     1     6 ar  
     3     1    14 1   
     4     2     3 ar  
     5     3     4 ar  
     6     4     5 ar  
     7     5     6 ar  
     8     5     7 1   
     9     6     9 1   
    10     7     8 1   
    11     8     9 2   
    12     8    10 1   
    13     9    12 1   
    14    10    11 1   
    15    11    12 2   
    16    11    13 1   
    17    14    15 1   
    18    15    16 1   
    19    16    17 1   
    20    16    18 1   
    21    16    19 1   
    22     2    20 1   
    23     3    21 1   
    24     4    22 1   
    25     7    23 1   
    26     7    24 1   
    27    13    25 1   
    28    13    26 1   
    29    15    27 1   
    30    15    28 1   
@<TRIPOS>SUBSTRUCTURE
     1 2T4         1 TEMP              0 ****  ****    0 ROOT
