@<TRIPOS>MOLECULE
2T5
   26    28     1     0     0
SMALL
bcc


@<TRIPOS>ATOM
      1 P1         -0.2420    0.3060   -0.3810 p5        1 2T5      1.197700
      2 O2          1.1470    0.4470    0.1700 o         1 2T5     -0.930167
      3 O3         -1.3640    0.5680    0.6100 o         1 2T5     -0.930167
      4 O4         -0.4730    0.8730   -1.7590 o         1 2T5     -0.930167
      5 C5         -0.5170   -1.4700   -0.7450 c3        1 2T5     -0.045800
      6 O6          0.1430   -2.3890    0.1360 os        1 2T5     -0.262900
      7 C7         -0.5430   -2.8420    1.2070 ca        1 2T5      0.250100
      8 C8         -0.2040   -4.0850    1.7600 ca        1 2T5     -0.262500
      9 C9         -0.9010   -4.5640    2.9240 ca        1 2T5     -0.071300
     10 C10        -1.9100   -3.8380    3.5030 ca        1 2T5     -0.212000
     11 C11        -2.2370   -2.5810    2.9410 ca        1 2T5     -0.114000
     12 C12        -1.5840   -2.0880    1.8380 ca        1 2T5     -0.205000
     13 C13        -0.3620   -5.9120    3.3460 c3        1 2T5      0.070200
     14 C14         0.6910   -6.1840    2.3300 cc        1 2T5     -0.285700
     15 C15         0.7700   -5.0990    1.4080 cd        1 2T5      0.482800
     16 S16         1.8020   -7.3600    1.9400 ss        1 2T5     -0.218300
     17 C17         2.3300   -6.4130    0.5850 cc        1 2T5      0.372300
     18 N18         1.7170   -5.2520    0.4070 nd        1 2T5     -0.561000
     19 H5         -1.6080   -1.6740   -0.7910 h1        1 2T5      0.032700
     20 H5A        -0.0400   -1.6990   -1.7280 h1        1 2T5      0.032700
     21 H10        -2.4470   -4.2060    4.3850 ha        1 2T5      0.093000
     22 H11        -3.0230   -1.9780    3.4190 ha        1 2T5      0.108000
     23 H12        -1.7640   -1.0410    1.4240 ha        1 2T5      0.282000
     24 H13         0.0630   -5.8660    4.3810 hc        1 2T5      0.039700
     25 H13A       -1.1660   -6.6890    3.3280 hc        1 2T5      0.039700
     26 H17         3.1240   -6.7570   -0.0770 h5        1 2T5      0.028100
@<TRIPOS>BOND
     1    1    2 1   
     2    1    3 1   
     3    1    4 1   
     4    1    5 1   
     5    5    6 1   
     6    5   19 1   
     7    5   20 1   
     8    6    7 1   
     9    7    8 ar  
    10    7   12 ar  
    11    8    9 ar  
    12    8   15 1   
    13    9   10 ar  
    14    9   13 1   
    15   10   11 ar  
    16   10   21 1   
    17   11   12 ar  
    18   11   22 1   
    19   12   23 1   
    20   13   14 1   
    21   13   24 1   
    22   13   25 1   
    23   14   15 2   
    24   14   16 1   
    25   15   18 1   
    26   16   17 1   
    27   17   18 2   
    28   17   26 1   
@<TRIPOS>SUBSTRUCTURE
     1 2T5         1 TEMP              0 ****  ****    0 ROOT
