@<TRIPOS>MOLECULE
molecule
   26    28     1     0     0
SMALL
bcc


@<TRIPOS>ATOM
      1 P1           0.0000     0.0000     0.0000 p5         1 2T5       1.003700
      2 O2           1.6090     0.0000     0.0000 o          1 2T5      -0.880833
      3 O3          -0.4940     0.0000     1.3950 o          1 2T5      -0.880833
      4 O4          -0.5370     1.3140    -0.7600 o          1 2T5      -0.880833
      5 C5          -0.6080    -1.4890    -0.8580 c3         1 2T5      -0.040800
      6 O6          -0.1310    -2.6560    -0.1840 os         1 2T5      -0.276900
      7 C7          -0.7320    -2.9780     0.9910 ca         1 2T5       0.230100
      8 C8          -0.3180    -4.1060     1.7060 ca         1 2T5      -0.205500
      9 C9          -0.9420    -4.4240     2.9070 ca         1 2T5      -0.095300
     10 C10         -1.9630    -3.6340     3.3920 ca         1 2T5      -0.190000
     11 C11         -2.3710    -2.5180     2.6820 ca         1 2T5      -0.158000
     12 C12         -1.7550    -2.1880     1.4900 ca         1 2T5      -0.008000
     13 C13         -0.2800    -5.6750     3.4260 c3         1 2T5       0.075200
     14 C14          0.7750    -6.0320     2.4040 cc         1 2T5      -0.193700
     15 C15          0.7440    -5.1160     1.4120 cd         1 2T5       0.498800
     16 S16          2.0310    -7.2140     2.0430 ss         1 2T5      -0.340300
     17 C17          2.4100    -6.3870     0.5980 cc         1 2T5       0.441300
     18 N18          1.6550    -5.3600     0.4570 nd         1 2T5      -0.618000
     19 H5          -0.2470    -1.4900    -1.8800 h1         1 2T5       0.031200
     20 H5A         -1.6910    -1.4890    -0.8580 h1         1 2T5       0.031200
     21 H10         -2.4830    -3.8310     4.3210 ha         1 2T5       0.089000
     22 H11         -3.1250    -1.9230     3.1820 ha         1 2T5       0.115000
     23 H12         -2.6560    -1.8420     0.9960 ha         1 2T5       0.127000
     24 H13          0.1810    -5.4820     4.3870 hc         1 2T5       0.042200
     25 H13A        -1.0060    -6.4750     3.5070 hc         1 2T5       0.042200
     26 H17          3.1800    -6.6870    -0.1020 h5         1 2T5       0.041100
@<TRIPOS>BOND
     1     1     2 1   
     2     1     3 1   
     3     1     4 1   
     4     1     5 1   
     5     5     6 1   
     6     6     7 1   
     7     7     8 ar  
     8     7    12 ar  
     9     8     9 ar  
    10     8    15 1   
    11     9    10 ar  
    12     9    13 1   
    13    10    11 ar  
    14    11    12 ar  
    15    13    14 1   
    16    14    15 2   
    17    14    16 1   
    18    15    18 1   
    19    16    17 1   
    20    17    18 2   
    21     5    19 1   
    22     5    20 1   
    23    10    21 1   
    24    11    22 1   
    25    12    23 1   
    26    13    24 1   
    27    13    25 1   
    28    17    26 1   
@<TRIPOS>SUBSTRUCTURE
     1 2T5         1 TEMP              0 ****  ****    0 ROOT
