@<TRIPOS>MOLECULE
molecule
   31    33     1     0     0
SMALL
bcc


@<TRIPOS>ATOM
      1 C1           0.0000     0.0000     0.0000 ca         1 2T6       0.033700
      2 C2           1.3850     0.0000     0.0000 ca         1 2T6      -0.198500
      3 C3           2.0780     0.0000     1.2190 ca         1 2T6       0.277100
      4 C4           1.3740     0.0020     2.4150 ca         1 2T6      -0.094000
      5 C5          -0.0040     0.0020     2.4140 ca         1 2T6      -0.131000
      6 C6          -0.7030     0.0020     1.2030 ca         1 2T6      -0.255600
      7 C7          -0.4380     0.0050    -1.4430 c3         1 2T6       0.060200
      8 C8           0.8370     0.0070    -2.2550 cc         1 2T6      -0.191700
      9 C9           1.8870    -0.0020    -1.4090 cd         1 2T6       0.471800
     10 S10          1.4430     0.0110    -3.9090 ss         1 2T6      -0.253300
     11 C11          3.0500     0.0090    -3.3310 cc         1 2T6       0.456300
     12 N12          3.0660    -0.0020    -2.0490 nd         1 2T6      -0.624000
     13 O13          3.4340    -0.0000     1.2290 os         1 2T6      -0.202900
     14 C14          4.0740    -0.0000     2.5070 c3         1 2T6      -0.027800
     15 O15          2.5200    -2.0190     3.4140 o          1 2T6      -0.830167
     16 C16         -2.1790     0.0020     1.1980 c          1 2T6       0.457700
     17 N17         -2.8570     0.0040     2.3650 nz         1 2T6      -0.658400
     18 O18         -2.7850     0.0020     0.1440 o          1 2T6      -0.555100
     19 P19          3.9470    -1.6590     3.2520 p5         1 2T6       0.928700
     20 O20          4.6660    -2.7340     2.2930 o          1 2T6      -0.830167
     21 O21          4.6660    -1.6580     4.6920 o          1 2T6      -0.830167
     22 H4           1.9120     0.0020     3.3560 ha         1 2T6       0.214000
     23 H5          -0.5460     0.0030     3.3520 ha         1 2T6       0.093000
     24 H7          -1.0170     0.8960    -1.6540 hc         1 2T6       0.075200
     25 H7A         -1.0170    -0.8850    -1.6600 hc         1 2T6       0.075200
     26 H11          3.9320     0.0160    -3.9590 h5         1 2T6       0.059100
     27 H14          5.1180     0.2630     2.3880 h1         1 2T6       0.060200
     28 H14A         3.5900     0.7230     3.1530 h1         1 2T6       0.060200
     29 HN17        -2.6150     0.8220     2.8890 hn         1 2T6       0.453467
     30 HN1A        -2.6170    -0.8120     2.8910 hn         1 2T6       0.453467
     31 H173        -3.8400     0.0050     2.1790 hn         1 2T6       0.453467
@<TRIPOS>BOND
     1     1     2 ar  
     2     1     6 ar  
     3     1     7 1   
     4     2     3 ar  
     5     2     9 1   
     6     3     4 ar  
     7     3    13 1   
     8     4     5 ar  
     9     5     6 ar  
    10     6    16 1   
    11     7     8 1   
    12     8     9 2   
    13     8    10 1   
    14     9    12 1   
    15    10    11 1   
    16    11    12 2   
    17    13    14 1   
    18    14    19 1   
    19    15    19 1   
    20    16    17 1   
    21    16    18 2   
    22    19    20 1   
    23    19    21 1   
    24     4    22 1   
    25     5    23 1   
    26     7    24 1   
    27     7    25 1   
    28    11    26 1   
    29    14    27 1   
    30    14    28 1   
    31    17    29 1   
    32    17    30 1   
    33    31    17 1   
@<TRIPOS>SUBSTRUCTURE
     1 2T6         1 TEMP              0 ****  ****    0 ROOT
