@<TRIPOS>MOLECULE
2T6
   31    33     1     0     0
SMALL
bcc


@<TRIPOS>ATOM
      1 C1           0.0000     0.0000     0.0000 ca         1 2T6       0.028700
      2 C2           1.3850     0.0000     0.0000 ca         1 2T6      -0.217500
      3 C3           2.0780     0.0000     1.2190 ca         1 2T6       0.233100
      4 C4           1.3740     0.0020     2.4150 ca         1 2T6      -0.080000
      5 C5          -0.0040     0.0020     2.4140 ca         1 2T6      -0.150000
      6 C6          -0.7030     0.0020     1.2030 ca         1 2T6      -0.230600
      7 C7          -0.4380     0.0050    -1.4430 c3         1 2T6       0.157200
      8 C8           0.8370     0.0070    -2.2550 cc         1 2T6      -0.168700
      9 C9           1.8870    -0.0020    -1.4090 cd         1 2T6       0.421800
     10 S10          1.4430     0.0110    -3.9090 ss         1 2T6      -0.351300
     11 C11          3.0500     0.0090    -3.3310 cc         1 2T6       0.448300
     12 N12          3.0660    -0.0020    -2.0490 nd         1 2T6      -0.486000
     13 O13          3.4340    -0.0000     1.2290 os         1 2T6      -0.173900
     14 C14          4.0740    -0.0000     2.5070 c3         1 2T6       0.214200
     15 O15          2.5200    -2.0190     3.4140 o          1 2T6      -0.636500
     16 C16         -2.1790     0.0020     1.1980 c          1 2T6       0.229700
     17 N17         -2.8570     0.0040     2.3650 nz         1 2T6       0.238600
     18 O18         -2.7850     0.0020     0.1440 o          1 2T6      -0.644100
     19 P19          3.9470    -1.6590     3.2520 p5         1 2T6       0.417700
     20 O20          4.6660    -2.7340     2.2930 o          1 2T6      -0.636500
     21 O21          4.6660    -1.6580     4.6920 o          1 2T6      -0.636500
     22 H4           1.9120     0.0020     3.3560 ha         1 2T6       0.185000
     23 H5          -0.5460     0.0030     3.3520 ha         1 2T6       0.068000
     24 H7          -1.0170     0.8960    -1.6540 hc         1 2T6       0.041200
     25 H7A         -1.0170    -0.8850    -1.6600 hc         1 2T6       0.041200
     26 H11          3.9320     0.0160    -3.9590 h5         1 2T6       0.019100
     27 H14          5.1180     0.2630     2.3880 h1         1 2T6       0.024200
     28 H14A         3.5900     0.7230     3.1530 h1         1 2T6       0.024200
     29 HN17        -2.6150     0.8220     2.8890 hn         1 2T6       0.205800
     30 HN1A        -2.6170    -0.8120     2.8910 hn         1 2T6       0.205800
     31 H173        -3.8400     0.0050     2.1790 hn         1 2T6       0.205800
@<TRIPOS>BOND
     1     1     2 ar  
     2     1     6 ar  
     3     1     7 1   
     4     2     3 ar  
     5     2     9 1   
     6     3     4 ar  
     7     3    13 1   
     8     4     5 ar  
     9     4    22 1   
    10     5     6 ar  
    11     5    23 1   
    12     6    16 1   
    13     7     8 1   
    14     7    24 1   
    15     7    25 1   
    16     8     9 2   
    17     8    10 1   
    18     9    12 1   
    19    10    11 1   
    20    11    12 2   
    21    11    26 1   
    22    13    14 1   
    23    14    19 1   
    24    14    27 1   
    25    14    28 1   
    26    15    19 1   
    27    16    17 1   
    28    16    18 2   
    29    17    29 1   
    30    17    30 1   
    31    17    31 1   
    32    19    20 1   
    33    19    21 1   
@<TRIPOS>SUBSTRUCTURE
     1 2T6         1 TEMP              0 ****  ****    0 ROOT
