@<TRIPOS>MOLECULE
2T7
   40    42     1     0     0
SMALL
bcc


@<TRIPOS>ATOM
      1 O25          0.0000     0.0000     0.0000 o          1 2T7      -0.462500
      2 N23          1.2180     0.0000     0.0000 no         1 2T7       1.060200
      3 O24          1.8260     0.0000     1.0550 o          1 2T7      -0.462500
      4 C20          1.9580    -0.0060    -1.2820 ca         1 2T7      -0.503200
      5 C21          3.3400    -0.0130    -1.2800 ca         1 2T7       0.032000
      6 C18          4.0350    -0.0180    -2.4740 ca         1 2T7      -0.239000
      7 C16          3.3420    -0.0190    -3.6770 ca         1 2T7       0.229100
      8 O19          4.0220    -0.0250    -4.8540 os         1 2T7      -0.287900
      9 C22          5.4490    -0.0310    -4.7780 c3         1 2T7       0.243700
     10 C17          1.2660    -0.0130    -2.4780 ca         1 2T7       0.044000
     11 C15          1.9540    -0.0130    -3.6760 ca         1 2T7      -0.170300
     12 C3           1.2000    -0.0150    -4.9810 c3         1 2T7       0.037600
     13 N2           1.0540    -1.3910    -5.4600 na         1 2T7       0.371600
     14 C10          0.0520    -2.2580    -5.0840 ca         1 2T7      -0.209200
     15 C5          -1.0360    -2.1480    -4.2240 ca         1 2T7      -0.133000
     16 C4          -1.8820    -3.2220    -4.0520 ca         1 2T7      -0.095000
     17 C9           0.2730    -3.4680    -5.7670 ca         1 2T7      -0.077800
     18 C6          -0.5970    -4.5430    -5.5770 ca         1 2T7      -0.012000
     19 C1          -1.6600    -4.4140    -4.7270 ca         1 2T7      -0.165000
     20 C8           1.4760    -3.2620    -6.5760 cc         1 2T7      -0.032400
     21 C7           1.8890    -2.0050    -6.3530 cd         1 2T7      -0.293100
     22 C11          2.1240    -4.2690    -7.4910 c3         1 2T7      -0.060200
     23 C12          1.4520    -4.2280    -8.8390 c          1 2T7       0.978600
     24 O13          1.8660    -5.0450    -9.8210 o          1 2T7      -0.897300
     25 O14          0.5410    -3.4600    -9.0370 o          1 2T7      -0.897300
     26 H1           3.8800    -0.0140    -0.3400 ha         1 2T7       0.124000
     27 H2           5.1160    -0.0780    -2.4720 ha         1 2T7       0.129000
     28 H3           5.7790    -0.9240    -4.2630 h1         1 2T7       0.001700
     29 H4           5.7850     0.8450    -4.2360 h1         1 2T7       0.001700
     30 H5           5.8630    -0.0170    -5.7790 h1         1 2T7       0.001700
     31 H6           0.1830     0.0200    -2.4770 ha         1 2T7       0.140000
     32 H7           0.2190     0.4210    -4.8310 h1         1 2T7       0.035700
     33 H8           1.7450     0.5670    -5.7140 h1         1 2T7       0.035700
     34 H9          -1.2180    -1.2220    -3.6920 ha         1 2T7       0.087000
     35 H10         -2.7280    -3.1360    -3.3820 ha         1 2T7       0.086000
     36 H11         -0.4300    -5.4760    -6.1010 ha         1 2T7       0.109000
     37 H12         -2.3350    -5.2490    -4.5810 ha         1 2T7       0.092000
     38 H13          2.7540    -1.5430    -6.8130 h4         1 2T7       0.142000
     39 H14          3.1750    -4.0300    -7.6040 hc         1 2T7       0.008700
     40 H15          2.0220    -5.2600    -7.0660 hc         1 2T7       0.008700
@<TRIPOS>BOND
     1     1     2 1   
     2     2     3 1   
     3     2     4 1   
     4     4     5 ar  
     5     4    10 ar  
     6     5     6 ar  
     7     5    26 1   
     8     6     7 ar  
     9     6    27 1   
    10     7     8 1   
    11     7    11 ar  
    12     8     9 1   
    13     9    28 1   
    14     9    29 1   
    15     9    30 1   
    16    10    11 ar  
    17    10    31 1   
    18    11    12 1   
    19    12    13 1   
    20    12    32 1   
    21    12    33 1   
    22    13    14 1   
    23    13    21 1   
    24    14    15 ar  
    25    14    17 ar  
    26    15    16 ar  
    27    15    34 1   
    28    16    19 ar  
    29    16    35 1   
    30    17    18 ar  
    31    17    20 1   
    32    18    19 ar  
    33    18    36 1   
    34    19    37 1   
    35    20    21 2   
    36    20    22 1   
    37    21    38 1   
    38    22    23 1   
    39    22    39 1   
    40    22    40 1   
    41    23    24 1   
    42    23    25 1   
@<TRIPOS>SUBSTRUCTURE
     1 2T7         1 TEMP              0 ****  ****    0 ROOT
