@<TRIPOS>MOLECULE
molecule
   54    57     1     0     0
SMALL
bcc


@<TRIPOS>ATOM
      1 O33          0.0000     0.0000     0.0000 o          1 2T9      -0.218000
      2 N31          1.2180     0.0000     0.0000 no         1 2T9       0.302200
      3 O32          1.8270     0.0000     1.0540 o          1 2T9      -0.218000
      4 C6           1.9580    -0.0080    -1.2820 ca         1 2T9      -0.201200
      5 C5           3.3400    -0.0140    -1.2800 ca         1 2T9      -0.032000
      6 C4           4.0340    -0.0210    -2.4760 ca         1 2T9      -0.237000
      7 C7           1.2650    -0.0140    -2.4790 ca         1 2T9      -0.019000
      8 C8           1.9540    -0.0220    -3.6760 ca         1 2T9      -0.141300
      9 C3           3.3410    -0.0220    -3.6770 ca         1 2T9       0.201100
     10 O2           4.0210    -0.0280    -4.8540 os         1 2T9      -0.306900
     11 C1           5.4480    -0.0330    -4.7800 c3         1 2T9       0.125700
     12 C9           1.1990    -0.0290    -4.9800 c3         1 2T9       0.114600
     13 N10          1.0580    -1.4080    -5.4550 na         1 2T9      -0.083400
     14 C22          0.0590    -2.2780    -5.0750 ca         1 2T9      -0.046200
     15 C17          0.2850    -3.4910    -5.7530 ca         1 2T9      -0.065800
     16 C12          1.4870    -3.2830    -6.5640 cc         1 2T9      -0.058400
     17 C13          2.1390    -4.2910    -7.4750 c3         1 2T9      -0.125200
     18 C14          1.4660    -4.2580    -8.8240 c          1 2T9       0.890600
     19 O16          0.5520    -3.4940    -9.0240 o          1 2T9      -0.844800
     20 O15          1.8840    -5.0760    -9.8020 o          1 2T9      -0.844800
     21 C11          1.8950    -2.0230    -6.3450 cd         1 2T9      -0.125100
     22 C21         -1.0270    -2.1680    -4.2170 ca         1 2T9      -0.140000
     23 C20         -1.8760    -3.2530    -4.0390 cp         1 2T9      -0.039000
     24 C19         -1.6440    -4.4530    -4.7190 ca         1 2T9      -0.160000
     25 C18         -0.5790    -4.5720    -5.5630 ca         1 2T9      -0.059000
     26 C23         -3.0370    -3.1380    -3.1230 cp         1 2T9       0.076000
     27 C30         -3.8920    -4.2220    -2.9410 ca         1 2T9      -0.255500
     28 C28         -4.9780    -4.1110    -2.0830 ca         1 2T9       0.242100
     29 N29         -5.8360    -5.1980    -1.9000 nv         1 2T9      -0.925700
     30 C27         -5.2120    -2.9210    -1.4060 ca         1 2T9      -0.303000
     31 C25         -4.3610    -1.8390    -1.5860 ca         1 2T9       0.242100
     32 N26         -4.5980    -0.6430    -0.9050 nv         1 2T9      -0.925700
     33 C24         -3.2710    -1.9460    -2.4390 ca         1 2T9      -0.255500
     34 H1           3.8810    -0.0140    -0.3420 ha         1 2T9       0.159000
     35 H2           5.1170    -0.0230    -2.4740 ha         1 2T9       0.147000
     36 H3           0.1820    -0.0140    -2.4770 ha         1 2T9       0.172000
     37 H4           5.8620    -0.0340    -5.7810 h1         1 2T9       0.046700
     38 H5           5.7850     0.8500    -4.2500 h1         1 2T9       0.046700
     39 H6           5.7790    -0.9190    -4.2520 h1         1 2T9       0.046700
     40 H7           0.2170     0.4030    -4.8310 h1         1 2T9       0.067200
     41 H8           1.7420     0.5520    -5.7150 h1         1 2T9       0.067200
     42 H9           2.0410    -5.2810    -7.0470 hc         1 2T9       0.037200
     43 H10          3.1890    -4.0490    -7.5890 hc         1 2T9       0.037200
     44 H12          2.7590    -1.5600    -6.8070 h4         1 2T9       0.164000
     45 H13         -1.2110    -1.2400    -3.6880 ha         1 2T9       0.112000
     46 H14         -2.3120    -5.2930    -4.5730 ha         1 2T9       0.122000
     47 H15         -0.4040    -5.5050    -6.0870 ha         1 2T9       0.142000
     48 H16         -3.7350    -5.1360    -3.5010 ha         1 2T9       0.131500
     49 H17         -6.6190    -5.1190    -1.2820 hn         1 2T9       0.423300
     50 H18         -5.6670    -6.0570    -2.3850 hn         1 2T9       0.423300
     51 H19         -6.0590    -2.8370    -0.7370 ha         1 2T9       0.115000
     52 H20         -4.0020     0.1460    -1.0580 hn         1 2T9       0.423300
     53 H21         -5.3720    -0.5720    -0.2750 hn         1 2T9       0.423300
     54 H22         -2.6070    -1.1020    -2.5790 ha         1 2T9       0.131500
@<TRIPOS>BOND
     1     3     2 1
     2     2     1 1
     3     2     4 1
     4     5     4 ar
     5     5     6 ar
     6     4     7 ar
     7     6     9 ar
     8     7     8 ar
     9     9     8 ar
    10     9    10 1
    11    11    10 1
    12     8    12 1
    13    12    13 1
    14    13    21 1
    15    13    14 1
    16    21    16 2
    17    14    22 ar
    18    14    15 ar
    19    32    31 1
    20    22    23 ar
    21    16    15 1
    22    16    17 1
    23    33    31 ar
    24    33    26 ar
    25    31    30 ar
    26    15    25 ar
    27    17    18 1
    28    23    26 1
    29    23    24 ar
    30    26    27 ar
    31    19    18 1
    32    30    28 ar
    33    18    20 1
    34    25    24 ar
    35    27    28 ar
    36    28    29 1
    37     5    34 1
    38     6    35 1
    39     7    36 1
    40    11    37 1
    41    11    38 1
    42    11    39 1
    43    12    40 1
    44    12    41 1
    45    17    42 1
    46    17    43 1
    47    21    44 1
    48    22    45 1
    49    24    46 1
    50    25    47 1
    51    27    48 1
    52    29    49 1
    53    29    50 1
    54    30    51 1
    55    32    52 1
    56    32    53 1
    57    33    54 1
@<TRIPOS>SUBSTRUCTURE
     1 2T9         1 TEMP              0 ****  ****    0 ROOT
