@<TRIPOS>MOLECULE
2T9
   54    57     1     0     0
SMALL
bcc


@<TRIPOS>ATOM
      1 O33          0.0000     0.0000     0.0000 o          1 2T9      -0.462500
      2 N31          1.2180     0.0000     0.0000 no         1 2T9       1.061200
      3 O32          1.8270     0.0000     1.0540 o          1 2T9      -0.462500
      4 C6           1.9580    -0.0080    -1.2820 ca         1 2T9      -0.502200
      5 C5           3.3400    -0.0140    -1.2800 ca         1 2T9       0.032000
      6 C4           4.0340    -0.0210    -2.4760 ca         1 2T9      -0.239000
      7 C7           1.2650    -0.0140    -2.4790 ca         1 2T9       0.042000
      8 C8           1.9540    -0.0220    -3.6760 ca         1 2T9      -0.170300
      9 C3           3.3410    -0.0220    -3.6770 ca         1 2T9       0.229100
     10 O2           4.0210    -0.0280    -4.8540 os         1 2T9      -0.288900
     11 C1           5.4480    -0.0330    -4.7800 c3         1 2T9       0.243700
     12 C9           1.1990    -0.0290    -4.9800 c3         1 2T9       0.037600
     13 N10          1.0580    -1.4080    -5.4550 na         1 2T9       0.371600
     14 C22          0.0590    -2.2780    -5.0750 ca         1 2T9      -0.212200
     15 C17          0.2850    -3.4910    -5.7530 ca         1 2T9      -0.070800
     16 C12          1.4870    -3.2830    -6.5640 cc         1 2T9      -0.033400
     17 C13          2.1390    -4.2910    -7.4750 c3         1 2T9      -0.061200
     18 C14          1.4660    -4.2580    -8.8240 c          1 2T9       0.978600
     19 O16          0.5520    -3.4940    -9.0240 o          1 2T9      -0.896800
     20 O15          1.8840    -5.0760    -9.8020 o          1 2T9      -0.896800
     21 C11          1.8950    -2.0230    -6.3450 cd         1 2T9      -0.290100
     22 C21         -1.0270    -2.1680    -4.2170 ca         1 2T9      -0.118000
     23 C20         -1.8760    -3.2530    -4.0390 cp         1 2T9      -0.038000
     24 C19         -1.6440    -4.4530    -4.7190 ca         1 2T9      -0.150000
     25 C18         -0.5790    -4.5720    -5.5630 ca         1 2T9      -0.018000
     26 C23         -3.0370    -3.1380    -3.1230 cp         1 2T9       0.091000
     27 C30         -3.8920    -4.2220    -2.9410 ca         1 2T9      -0.246500
     28 C28         -4.9780    -4.1110    -2.0830 ca         1 2T9       0.099600
     29 N29         -5.8360    -5.1980    -1.9000 nv         1 2T9      -0.459700
     30 C27         -5.2120    -2.9210    -1.4060 ca         1 2T9      -0.290000
     31 C25         -4.3610    -1.8390    -1.5860 ca         1 2T9       0.099600
     32 N26         -4.5980    -0.6430    -0.9050 nv         1 2T9      -0.459700
     33 C24         -3.2710    -1.9460    -2.4390 ca         1 2T9      -0.246500
     34 H1           3.8810    -0.0140    -0.3420 ha         1 2T9       0.124000
     35 H2           5.1170    -0.0230    -2.4740 ha         1 2T9       0.129000
     36 H3           0.1820    -0.0140    -2.4770 ha         1 2T9       0.139000
     37 H4           5.8620    -0.0340    -5.7810 h1         1 2T9       0.001367
     38 H5           5.7850     0.8500    -4.2500 h1         1 2T9       0.001367
     39 H6           5.7790    -0.9190    -4.2520 h1         1 2T9       0.001367
     40 H7           0.2170     0.4030    -4.8310 h1         1 2T9       0.035700
     41 H8           1.7420     0.5520    -5.7150 h1         1 2T9       0.035700
     42 H9           2.0410    -5.2810    -7.0470 hc         1 2T9       0.009200
     43 H10          3.1890    -4.0490    -7.5890 hc         1 2T9       0.009200
     44 H12          2.7590    -1.5600    -6.8070 h4         1 2T9       0.142000
     45 H13         -1.2110    -1.2400    -3.6880 ha         1 2T9       0.098000
     46 H14         -2.3120    -5.2930    -4.5730 ha         1 2T9       0.103000
     47 H15         -0.4040    -5.5050    -6.0870 ha         1 2T9       0.110000
     48 H16         -3.7350    -5.1360    -3.5010 ha         1 2T9       0.120500
     49 H17         -6.6190    -5.1190    -1.2820 hn         1 2T9       0.260050
     50 H18         -5.6670    -6.0570    -2.3850 hn         1 2T9       0.260050
     51 H19         -6.0590    -2.8370    -0.7370 ha         1 2T9       0.104000
     52 H20         -4.0020     0.1460    -1.0580 hn         1 2T9       0.260050
     53 H21         -5.3720    -0.5720    -0.2750 hn         1 2T9       0.260050
     54 H22         -2.6070    -1.1020    -2.5790 ha         1 2T9       0.120500
@<TRIPOS>BOND
     1     1     2 1   
     2     2     3 1   
     3     2     4 1   
     4     4     5 ar  
     5     4     7 ar  
     6     5     6 ar  
     7     5    34 1   
     8     6     9 ar  
     9     6    35 1   
    10     7     8 ar  
    11     7    36 1   
    12     8     9 ar  
    13     8    12 1   
    14     9    10 1   
    15    10    11 1   
    16    11    37 1   
    17    11    38 1   
    18    11    39 1   
    19    12    13 1   
    20    12    40 1   
    21    12    41 1   
    22    13    14 1   
    23    13    21 1   
    24    14    15 ar  
    25    14    22 ar  
    26    15    16 1   
    27    15    25 ar  
    28    16    17 1   
    29    16    21 2   
    30    17    18 1   
    31    17    42 1   
    32    17    43 1   
    33    18    19 1   
    34    18    20 1   
    35    21    44 1   
    36    22    23 ar  
    37    22    45 1   
    38    23    24 ar  
    39    23    26 1   
    40    24    25 ar  
    41    24    46 1   
    42    25    47 1   
    43    26    27 ar  
    44    26    33 ar  
    45    27    28 ar  
    46    27    48 1   
    47    28    29 1   
    48    28    30 ar  
    49    29    49 1   
    50    29    50 1   
    51    30    31 ar  
    52    30    51 1   
    53    31    32 1   
    54    31    33 ar  
    55    32    52 1   
    56    32    53 1   
    57    33    54 1   
@<TRIPOS>SUBSTRUCTURE
     1 2T9         1 TEMP              0 ****  ****    0 ROOT
