@<TRIPOS>MOLECULE
2TA
   73    76     1     0     0
SMALL
bcc


@<TRIPOS>ATOM
      1 CAQ          0.0000     0.0000     0.0000 c3         1 2TA       0.145800
      2 CAR          1.5440     0.0000     0.0000 c3         1 2TA      -0.027400
      3 CAS          1.9450     0.0000     1.4890 c3         1 2TA      -0.027400
      4 CAT          0.6100    -0.0010     2.2640 c3         1 2TA       0.145800
      5 NAP         -0.3740    -0.5820     1.3140 n3         1 2TA      -0.541600
      6 CAO         -1.7460    -0.2090     1.6840 c3         1 2TA       0.150800
      7 CAN         -2.1820    -1.0180     2.9070 c3         1 2TA       0.200400
      8 OAM         -1.3760    -0.6560     4.0310 os         1 2TA      -0.307900
      9 CAJ         -1.6370    -1.2880     5.2060 ca         1 2TA       0.141100
     10 CAK         -0.8930    -0.9840     6.3360 ca         1 2TA      -0.161500
     11 CAL         -1.1560    -1.6260     7.5310 ca         1 2TA      -0.071000
     12 CAI         -2.6510    -2.2320     5.2760 ca         1 2TA      -0.161500
     13 CAH         -2.9170    -2.8740     6.4700 ca         1 2TA      -0.071000
     14 CAG         -2.1670    -2.5750     7.6000 ca         1 2TA      -0.046400
     15 NAF         -2.4360    -3.2260     8.8110 nu         1 2TA      -0.282300
     16 C2          -1.3950    -3.5660     9.6590 ca         1 2TA       0.736900
     17 N3          -1.6710    -4.1330    10.8250 nb         1 2TA      -0.755000
     18 N1          -0.1480    -3.3240     9.2820 nb         1 2TA      -0.727000
     19 C6           0.8730    -3.6400    10.0630 ca         1 2TA       0.528200
     20 C5           0.6300    -4.2320    11.2880 ca         1 2TA      -0.467900
     21 CAA          1.7670    -4.6060    12.2030 c3         1 2TA       0.095200
     22 C4          -0.6940    -4.4710    11.6600 ca         1 2TA       0.569200
     23 NAW         -0.9870    -5.0630    12.8790 nu         1 2TA      -0.304300
     24 CAX         -2.3170    -5.2750    13.2530 ca         1 2TA      -0.028400
     25 CBC         -2.6620    -6.3970    13.9960 ca         1 2TA      -0.031000
     26 CAY         -3.2960    -4.3600    12.8870 ca         1 2TA      -0.059000
     27 CAZ         -4.6100    -4.5730    13.2580 ca         1 2TA      -0.117000
     28 CBA         -4.9500    -5.6940    13.9930 ca         1 2TA      -0.025000
     29 CBB         -3.9760    -6.6030    14.3640 ca         1 2TA      -0.135500
     30 SBD         -4.4140    -8.0270    15.3060 sy         1 2TA       1.043200
     31 OBJ         -5.8290    -8.1320    15.2400 o          1 2TA      -0.589800
     32 OBK         -3.5360    -9.0660    14.8930 o          1 2TA      -0.589800
     33 NBE         -4.0420    -7.7010    16.8860 n7         1 2TA      -0.572100
     34 CBF         -4.7970    -6.6840    17.6220 c3         1 2TA       0.193200
     35 CBH         -5.1320    -5.5210    16.6860 c3         1 2TA      -0.040433
     36 CBI         -6.0930    -7.2970    18.1570 c3         1 2TA      -0.040433
     37 CBG         -3.9560    -6.1690    18.7920 c3         1 2TA      -0.040433
     38 H1          -0.3760     1.0120    -0.0840 h1         1 2TA       0.017200
     39 H2          -0.3760    -0.6180    -0.8060 h1         1 2TA       0.017200
     40 H3           1.9190    -0.8910    -0.4890 hc         1 2TA       0.016700
     41 H4           1.9190     0.8910    -0.4890 hc         1 2TA       0.016700
     42 H5           2.5140     0.8910     1.7240 hc         1 2TA       0.016700
     43 H6           2.5150    -0.8910     1.7240 hc         1 2TA       0.016700
     44 H7           0.6890    -0.6190     3.1490 h1         1 2TA       0.017200
     45 H8           0.3270     1.0110     2.5260 h1         1 2TA       0.017200
     46 H10         -2.4130    -0.4180     0.8560 h1         1 2TA       0.016700
     47 H11         -1.7820     0.8480     1.9190 h1         1 2TA       0.016700
     48 H12         -2.0620    -2.0750     2.7020 h1         1 2TA       0.008200
     49 H13         -3.2220    -0.8090     3.1260 h1         1 2TA       0.008200
     50 H14         -0.1040    -0.2440     6.2810 ha         1 2TA       0.117500
     51 H15         -0.5730    -1.3900     8.4120 ha         1 2TA       0.118500
     52 H16         -3.2350    -2.4660     4.3940 ha         1 2TA       0.117500
     53 H17         -3.7070    -3.6130     6.5240 ha         1 2TA       0.118500
     54 H18         -3.3820    -3.4130     9.0790 hn         1 2TA       0.290800
     55 H19          1.8890    -3.4380     9.7460 h4         1 2TA      -0.017900
     56 H20          1.7360    -5.6700    12.4020 hc         1 2TA       0.003367
     57 H21          2.7090    -4.3540    11.7300 hc         1 2TA       0.003367
     58 H22          1.6750    -4.0610    13.1350 hc         1 2TA       0.003367
     59 H23         -0.2460    -5.3200    13.5010 hn         1 2TA       0.294800
     60 H24         -1.8990    -7.1100    14.2870 ha         1 2TA       0.120000
     61 H25         -3.0310    -3.4820    12.3110 ha         1 2TA       0.137000
     62 H26         -5.3750    -3.8620    12.9710 ha         1 2TA       0.108000
     63 H27         -5.9810    -5.8570    14.2830 ha         1 2TA       0.135000
     64 H28         -3.3280    -8.2270    17.3510 hn         1 2TA       0.348800
     65 H29         -4.2400    -5.2200    16.1500 hc         1 2TA       0.020256
     66 H30         -5.5040    -4.6860    17.2660 hc         1 2TA       0.020256
     67 H31         -5.8900    -5.8340    15.9770 hc         1 2TA       0.020256
     68 H32         -6.5140    -6.6480    18.9150 hc         1 2TA       0.020256
     69 H33         -5.8820    -8.2670    18.5890 hc         1 2TA       0.020256
     70 H34         -6.8010    -7.4100    17.3450 hc         1 2TA       0.020256
     71 H35         -3.7340    -6.9890    19.4650 hc         1 2TA       0.020256
     72 H36         -3.0300    -5.7520    18.4140 hc         1 2TA       0.020256
     73 H37         -4.5070    -5.4030    19.3240 hc         1 2TA       0.020256
@<TRIPOS>BOND
     1     1     2 1   
     2     1     5 1   
     3     1    38 1   
     4     1    39 1   
     5     2     3 1   
     6     2    40 1   
     7     2    41 1   
     8     3     4 1   
     9     3    42 1   
    10     3    43 1   
    11     4     5 1   
    12     4    44 1   
    13     4    45 1   
    14     5     6 1   
    15     6     7 1   
    16     6    46 1   
    17     6    47 1   
    18     7     8 1   
    19     7    48 1   
    20     7    49 1   
    21     8     9 1   
    22     9    10 ar  
    23     9    12 ar  
    24    10    11 ar  
    25    10    50 1   
    26    11    14 ar  
    27    11    51 1   
    28    12    13 ar  
    29    12    52 1   
    30    13    14 ar  
    31    13    53 1   
    32    14    15 1   
    33    15    16 1   
    34    15    54 1   
    35    16    17 ar  
    36    16    18 ar  
    37    17    22 ar  
    38    18    19 ar  
    39    19    20 ar  
    40    19    55 1   
    41    20    21 1   
    42    20    22 ar  
    43    21    56 1   
    44    21    57 1   
    45    21    58 1   
    46    22    23 1   
    47    23    24 1   
    48    23    59 1   
    49    24    25 ar  
    50    24    26 ar  
    51    25    29 ar  
    52    25    60 1   
    53    26    27 ar  
    54    26    61 1   
    55    27    28 ar  
    56    27    62 1   
    57    28    29 ar  
    58    28    63 1   
    59    29    30 1   
    60    30    31 2   
    61    30    32 2   
    62    30    33 1   
    63    33    34 1   
    64    33    64 1   
    65    34    35 1   
    66    34    36 1   
    67    34    37 1   
    68    35    65 1   
    69    35    66 1   
    70    35    67 1   
    71    36    68 1   
    72    36    69 1   
    73    36    70 1   
    74    37    71 1   
    75    37    72 1   
    76    37    73 1   
@<TRIPOS>SUBSTRUCTURE
     1 2TA         1 TEMP              0 ****  ****    0 ROOT
