@<TRIPOS>MOLECULE
2TB
   27    27     1     0     0
SMALL
bcc


@<TRIPOS>ATOM
      1 C1           0.0000     0.0000     0.0000 c3         1 2TB      -0.078500
      2 C2           1.5300     0.0000     0.0000 c3         1 2TB      -0.036400
      3 C3           2.0400     0.0000     1.4420 c3         1 2TB      -0.078500
      4 C4           1.5310    -1.2500     2.1630 c3         1 2TB       0.159100
      5 C5           0.0000    -1.2510     2.1640 c3         1 2TB       0.169100
      6 C6          -0.5100    -1.2490     0.7210 c3         1 2TB       0.159100
      7 N1          -0.4900     0.0010    -1.3850 nz         1 2TB       0.091900
      8 N3           3.5080    -0.0000     1.4420 nz         1 2TB       0.091900
      9 O5          -0.4760    -2.4170     2.8370 oh         1 2TB      -0.552800
     10 O4           2.0060    -1.2500     3.5100 oh         1 2TB      -0.572300
     11 O6          -1.9390    -1.2500     0.7210 oh         1 2TB      -0.572300
     12 H1          -0.3590     0.8830     0.5150 hx         1 2TB       0.115700
     13 H21          1.8900    -0.8860    -0.5090 hc         1 2TB       0.051200
     14 H22          1.8900     0.8860    -0.5090 hc         1 2TB       0.051200
     15 H3           1.6740     0.8830     1.9530 hx         1 2TB       0.115700
     16 H4           1.8900    -2.1330     1.6480 h1         1 2TB       0.034700
     17 H5          -0.3590    -0.3640     2.6720 h1         1 2TB       0.047700
     18 H6          -0.1450    -2.1320     0.2100 h1         1 2TB       0.034700
     19 HN11        -1.4770     0.1630    -1.3900 hn         1 2TB       0.237633
     20 HN12        -0.2960    -0.8850    -1.8080 hn         1 2TB       0.237633
     21 HN13        -0.0300     0.7250    -1.9010 hn         1 2TB       0.237633
     22 HN31         3.8420     0.1300     2.3770 hn         1 2TB       0.237633
     23 HN32         3.8420    -0.8750     1.0880 hn         1 2TB       0.237633
     24 HN33         3.8420     0.7440     0.8620 hn         1 2TB       0.237633
     25 HO5         -0.9760    -2.1620     3.5940 ho         1 2TB       0.442000
     26 HO4          2.2850    -2.1200     3.7450 ho         1 2TB       0.450000
     27 HO6         -2.2530    -2.1300     0.5990 ho         1 2TB       0.450000
@<TRIPOS>BOND
     1     1     2 1   
     2     1     6 1   
     3     1     7 1   
     4     1    12 1   
     5     2     3 1   
     6     2    13 1   
     7     2    14 1   
     8     3     4 1   
     9     3     8 1   
    10     3    15 1   
    11     4     5 1   
    12     4    10 1   
    13     4    16 1   
    14     5     6 1   
    15     5     9 1   
    16     5    17 1   
    17     6    11 1   
    18     6    18 1   
    19     7    19 1   
    20     7    20 1   
    21     7    21 1   
    22     8    22 1   
    23     8    23 1   
    24     8    24 1   
    25     9    25 1   
    26    10    26 1   
    27    11    27 1   
@<TRIPOS>SUBSTRUCTURE
     1 2TB         1 TEMP              0 ****  ****    0 ROOT
