@<TRIPOS>MOLECULE
molecule
   53    56     1     0     0
SMALL
bcc


@<TRIPOS>ATOM
      1 C1           1.5160     0.0000     0.0000 c          1 2TC       0.570300
      2 O1           2.1400    -0.6970    -0.7740 o          1 2TC      -0.493100
      3 C2           2.2060     0.8670     0.9570 ce         1 2TC      -0.136900
      4 C21          3.6130     1.1000     0.8250 cg         1 2TC       0.211500
      5 N21          4.7320     1.2670     0.7300 n1         1 2TC      -0.341800
      6 C3           1.5070     1.4590     1.9800 c2         1 2TC       0.195900
      7 O3           2.1700     2.2370     2.8500 oh         1 2TC      -0.513100
      8 C4           0.0300     1.2690     2.1600 c3         1 2TC       0.202700
      9 N4          -0.6760     2.4260     1.5930 n3         1 2TC      -0.696600
     10 C43         -2.1260     2.3100     1.7990 c3         1 2TC       0.148100
     11 C42         -0.1630     3.6820     2.1550 c3         1 2TC       0.148100
     12 C41         -0.4580     0.0000     1.4710 c3         1 2TC      -0.051700
     13 C5           0.0930    -1.2380     2.1750 c3         1 2TC      -0.089400
     14 C51         -0.5160    -2.4970     1.5540 c3         1 2TC      -0.062700
     15 C6          -0.0200    -3.7310     2.3100 c3         1 2TC       0.200100
     16 C62         -0.4180    -3.6370     3.7850 c3         1 2TC      -0.093100
     17 O6           1.4250    -3.8420     2.1900 os         1 2TC      -0.378900
     18 C61         -0.5960    -4.9810     1.6970 ca         1 2TC      -0.073300
     19 C7          -1.8810    -5.4400     1.5210 ca         1 2TC       0.019400
     20 C8          -2.1020    -6.6640     0.9050 ca         1 2TC      -0.060000
     21 C9          -1.0380    -7.4270     0.4670 ca         1 2TC      -0.195000
     22 C10          0.2630    -6.9770     0.6390 ca         1 2TC       0.205100
     23 O10          1.3070    -7.7290     0.2080 oh         1 2TC      -0.480100
     24 C1A          0.4920    -5.7410     1.2590 ca         1 2TC      -0.210600
     25 C1B         -0.0980    -2.5970     0.0840 c3         1 2TC      -0.182400
     26 C12         -0.4650    -1.3080    -0.6170 c          1 2TC       0.558100
     27 O12         -1.1080    -1.3160    -1.6390 o          1 2TC      -0.493100
     28 C1C          0.0000     0.0000     0.0000 c3         1 2TC      -0.015200
     29 Cl7         -3.2250    -4.4880     2.0670 cl         1 2TC      -0.097400
     30 C11          1.7250    -5.0030     1.5820 c          1 2TC       0.746200
     31 O1C         -0.5120     1.1360    -0.7000 oh         1 2TC      -0.531800
     32 H3           2.6650     1.6960     3.4410 ho         1 2TC       0.443000
     33 H4          -0.1880     1.2000     3.2190 h1         1 2TC       0.042700
     34 H41         -1.5400    -0.0270     1.5040 hc         1 2TC       0.084700
     35 H421        -0.0430     3.5760     3.2270 h1         1 2TC       0.039200
     36 H422         0.7950     3.9140     1.7050 h1         1 2TC       0.039200
     37 H423        -0.8620     4.4830     1.9480 h1         1 2TC       0.039200
     38 H431        -2.5590     1.7260     0.9970 h1         1 2TC       0.039200
     39 H432        -2.5700     3.2980     1.8070 h1         1 2TC       0.039200
     40 H433        -2.3180     1.8200     2.7470 h1         1 2TC       0.039200
     41 H51C        -0.1620    -1.1960     3.2270 hc         1 2TC       0.063200
     42 H52C         1.1700    -1.2660     2.0610 hc         1 2TC       0.063200
     43 H51         -1.5960    -2.4410     1.6170 hc         1 2TC       0.079700
     44 H1B         -0.6180    -3.4240    -0.3840 hc         1 2TC       0.090700
     45 H621        -1.3840    -3.1550     3.8690 hc         1 2TC       0.057033
     46 H622        -0.4730    -4.6330     4.2080 hc         1 2TC       0.057033
     47 H623         0.3230    -3.0570     4.3230 hc         1 2TC       0.057033
     48 H8          -3.1150    -7.0230     0.7680 ha         1 2TC       0.157000
     49 H9          -1.2190    -8.3820    -0.0130 ha         1 2TC       0.154000
     50 H10          1.1980    -8.6170     0.5050 ho         1 2TC       0.430000
     51 H2B          0.9720    -2.7520     0.0220 hc         1 2TC       0.090700
     52 H1C         -0.2930     1.0660    -1.6150 ho         1 2TC       0.418000
     53 O11          2.8510    -5.3870     1.3360 o          1 2TC      -0.535500
@<TRIPOS>BOND
     1     1     2 2   
     2     1     3 1   
     3     1    28 1   
     4     3     4 1   
     5     3     6 2   
     6     4     5 3   
     7     6     7 1   
     8     6     8 1   
     9     8     9 1   
    10     8    12 1   
    11     9    11 1   
    12     9    10 1   
    13    12    13 1   
    14    12    28 1   
    15    13    14 1   
    16    14    15 1   
    17    14    25 1   
    18    15    16 1   
    19    15    17 1   
    20    15    18 1   
    21    17    30 1   
    22    18    19 ar  
    23    18    24 ar  
    24    19    20 ar  
    25    19    29 1   
    26    20    21 ar  
    27    21    22 ar  
    28    22    23 1   
    29    22    24 ar  
    30    24    30 1   
    31    53    30 2   
    32    25    26 1   
    33    26    27 2   
    34    26    28 1   
    35    28    31 1   
    36     7    32 1   
    37     8    33 1   
    38    12    34 1   
    39    11    35 1   
    40    11    36 1   
    41    11    37 1   
    42    10    38 1   
    43    10    39 1   
    44    10    40 1   
    45    13    41 1   
    46    13    42 1   
    47    14    43 1   
    48    25    44 1   
    49    16    45 1   
    50    16    46 1   
    51    16    47 1   
    52    20    48 1   
    53    21    49 1   
    54    23    50 1   
    55    25    51 1   
    56    31    52 1   
@<TRIPOS>SUBSTRUCTURE
     1 2TC         1 TEMP              0 ****  ****    0 ROOT
