@<TRIPOS>MOLECULE
2TD
   38    37     1     0     0
SMALL
bcc


@<TRIPOS>ATOM
      1 O1         -0.0290   -0.3540    0.1600 o         1 2TD     -0.530100
      2 C2          1.1800   -0.1340    0.0440 c         1 2TD      0.564100
      3 C1          2.0600    0.1150    1.2280 c3        1 2TD     -0.205100
      4 C3          1.8840   -0.0990   -1.2830 c3        1 2TD     -0.182400
      5 C4          0.9270   -0.0530   -2.4520 c3        1 2TD     -0.075400
      6 C5          1.6710   -0.0780   -3.7690 c3        1 2TD     -0.078400
      7 C6          0.7120   -0.0250   -4.9390 c3        1 2TD     -0.078400
      8 C7          1.4540   -0.0520   -6.2590 c3        1 2TD     -0.078400
      9 C8          0.4950    0.0000   -7.4280 c3        1 2TD     -0.079400
     10 C9          1.2360   -0.0270   -8.7480 c3        1 2TD     -0.079400
     11 C10         0.2760    0.0250   -9.9170 c3        1 2TD     -0.076400
     12 C11         1.0210   -0.0040  -11.2370 c3        1 2TD     -0.052200
     13 C12         0.0890    0.0300  -12.3910 c2        1 2TD     -0.164200
     14 C13         0.2570    0.8030  -13.4600 c2        1 2TD     -0.225000
     15 H1          2.3600    1.1920    1.2470 hc        1 2TD      0.063033
     16 H1A         1.5250   -0.1250    2.1780 hc        1 2TD      0.063033
     17 H1B         2.9830   -0.5110    1.1600 hc        1 2TD      0.063033
     18 H3          2.5310   -1.0150   -1.3530 hc        1 2TD      0.063700
     19 H3A         2.5650    0.7930   -1.3080 hc        1 2TD      0.063700
     20 H4          0.2240   -0.9260   -2.3910 hc        1 2TD      0.055200
     21 H4A         0.2990    0.8740   -2.3850 hc        1 2TD      0.055200
     22 H5          2.3760    0.7940   -3.8210 hc        1 2TD      0.037200
     23 H5A         2.2930   -1.0100   -3.8350 hc        1 2TD      0.037200
     24 H6          0.0070   -0.8950   -4.8860 hc        1 2TD      0.042200
     25 H6A         0.0920    0.9080   -4.8750 hc        1 2TD      0.042200
     26 H7          2.0750   -0.9840   -6.3230 hc        1 2TD      0.038700
     27 H7A         2.1590    0.8190   -6.3120 hc        1 2TD      0.038700
     28 H8         -0.2110   -0.8700   -7.3750 hc        1 2TD      0.040700
     29 H8A        -0.1260    0.9330   -7.3650 hc        1 2TD      0.040700
     30 H9          1.8570   -0.9590   -8.8120 hc        1 2TD      0.039700
     31 H9A         1.9410    0.8440   -8.8010 hc        1 2TD      0.039700
     32 H10        -0.3420    0.9590   -9.8560 hc        1 2TD      0.042200
     33 H10A       -0.4310   -0.8440   -9.8630 hc        1 2TD      0.042200
     34 H11         1.7390    0.8580  -11.2820 hc        1 2TD      0.046700
     35 H11A        1.6330   -0.9460  -11.2970 hc        1 2TD      0.046700
     36 H12        -0.7730   -0.6540  -12.3120 ha        1 2TD      0.119000
     37 H13         1.1010    1.4970  -13.5660 ha        1 2TD      0.110500
     38 H13A       -0.4430    0.7940  -14.3050 ha        1 2TD      0.110500
@<TRIPOS>BOND
     1    1    2 2   
     2    2    3 1   
     3    2    4 1   
     4    3   15 1   
     5    3   16 1   
     6    3   17 1   
     7    4    5 1   
     8    4   18 1   
     9    4   19 1   
    10    5    6 1   
    11    5   20 1   
    12    5   21 1   
    13    6    7 1   
    14    6   22 1   
    15    6   23 1   
    16    7    8 1   
    17    7   24 1   
    18    7   25 1   
    19    8    9 1   
    20    8   26 1   
    21    8   27 1   
    22    9   10 1   
    23    9   28 1   
    24    9   29 1   
    25   10   11 1   
    26   10   30 1   
    27   10   31 1   
    28   11   12 1   
    29   11   32 1   
    30   11   33 1   
    31   12   13 1   
    32   12   34 1   
    33   12   35 1   
    34   13   14 2   
    35   13   36 1   
    36   14   37 1   
    37   14   38 1   
@<TRIPOS>SUBSTRUCTURE
     1 2TD         1 TEMP              0 ****  ****    0 ROOT
