@<TRIPOS>MOLECULE
molecule
   38    37     1     0     0
SMALL
bcc


@<TRIPOS>ATOM
      1 O1           0.0000     0.0000     0.0000 o          1 2TD      -0.525100
      2 C2           1.2070     0.0000     0.0000 c          1 2TD       0.560100
      3 C1           1.9600     0.0000     1.3050 c3         1 2TD      -0.197100
      4 C3           1.9600    -0.0060    -1.3060 c3         1 2TD      -0.184400
      5 C4           0.9660    -0.0110    -2.4690 c3         1 2TD      -0.072400
      6 C5           1.7310    -0.0180    -3.7930 c3         1 2TD      -0.084400
      7 C6           0.7370    -0.0240    -4.9560 c3         1 2TD      -0.080400
      8 C7           1.5020    -0.0300    -6.2810 c3         1 2TD      -0.082400
      9 C8           0.5080    -0.0350    -7.4440 c3         1 2TD      -0.081400
     10 C9           1.2730    -0.0410    -8.7690 c3         1 2TD      -0.082400
     11 C10          0.2790    -0.0470    -9.9320 c3         1 2TD      -0.078400
     12 C11          1.0440    -0.0540   -11.2570 c3         1 2TD      -0.050200
     13 C12          0.0650    -0.0590   -12.4030 c2         1 2TD      -0.171200
     14 C13          0.1340     0.8660   -13.3280 c2         1 2TD      -0.225000
     15 H1           2.5730    -0.8910     1.3680 hc         1 2TD       0.060033
     16 H1A          2.5930     0.8780     1.3560 hc         1 2TD       0.060033
     17 H1B          1.2570     0.0140     2.1280 hc         1 2TD       0.060033
     18 H3           2.5830     0.8780    -1.3670 hc         1 2TD       0.063700
     19 H3A          2.5830    -0.8910    -1.3590 hc         1 2TD       0.063700
     20 H4           0.3430    -0.8950    -2.4070 hc         1 2TD       0.055700
     21 H4A          0.3440     0.8740    -2.4160 hc         1 2TD       0.055700
     22 H5           2.3540     0.8660    -3.8550 hc         1 2TD       0.038700
     23 H5A          2.3540    -0.9030    -3.8460 hc         1 2TD       0.038700
     24 H6           0.1140     0.8610    -4.9030 hc         1 2TD       0.043700
     25 H6A          0.1140    -0.9080    -4.8950 hc         1 2TD       0.043700
     26 H7           2.1250     0.8540    -6.3420 hc         1 2TD       0.040700
     27 H7A          2.1250    -0.9150    -6.3340 hc         1 2TD       0.040700
     28 H8          -0.1150     0.8490    -7.3900 hc         1 2TD       0.042200
     29 H8A         -0.1150    -0.9200    -7.3820 hc         1 2TD       0.042200
     30 H9           1.8960     0.8430    -8.8310 hc         1 2TD       0.040700
     31 H9A          1.8960    -0.9260    -8.8230 hc         1 2TD       0.040700
     32 H10         -0.3430     0.8380    -9.8790 hc         1 2TD       0.043200
     33 H10A        -0.3440    -0.9310    -9.8710 hc         1 2TD       0.043200
     34 H11          1.6660    -0.9390   -11.3100 hc         1 2TD       0.046700
     35 H11A         1.6670     0.8300   -11.3190 hc         1 2TD       0.046700
     36 H12         -0.6950    -0.8280   -12.4620 ha         1 2TD       0.122000
     37 H13         -0.5700     0.8610   -14.1510 ha         1 2TD       0.111000
     38 H13A         0.8950     1.6350   -13.2690 ha         1 2TD       0.111000
@<TRIPOS>BOND
     1     1     2 2   
     2     3     2 1   
     3     2     4 1   
     4     3    15 1   
     5     3    16 1   
     6     3    17 1   
     7     4     5 1   
     8     4    18 1   
     9     4    19 1   
    10     5     6 1   
    11     5    20 1   
    12     5    21 1   
    13     6     7 1   
    14     6    22 1   
    15     6    23 1   
    16     7     8 1   
    17     7    24 1   
    18     7    25 1   
    19     8     9 1   
    20     8    26 1   
    21     8    27 1   
    22     9    10 1   
    23     9    28 1   
    24     9    29 1   
    25    10    11 1   
    26    10    30 1   
    27    10    31 1   
    28    11    12 1   
    29    11    32 1   
    30    11    33 1   
    31    12    13 1   
    32    12    34 1   
    33    12    35 1   
    34    13    14 2   
    35    13    36 1   
    36    14    37 1   
    37    14    38 1   
@<TRIPOS>SUBSTRUCTURE
     1 2TD         1 TEMP              0 ****  ****    0 ROOT
