@<TRIPOS>MOLECULE
2TE
   60    62     1     0     0
SMALL
bcc


@<TRIPOS>ATOM
      1 C23         2.0060    0.6240    2.0290 c3        1 2TE     -0.022000
      2 C22         2.7680    0.4080    0.8430 c1        1 2TE     -0.101100
      3 C21         3.4020    0.2190   -0.1550 c1        1 2TE     -0.156100
      4 C20         4.1880    0.0690   -1.3360 c3        1 2TE     -0.018300
      5 C12         4.0710   -1.2860   -2.0610 c3        1 2TE      0.210100
      6 C24         2.6600   -1.4010   -2.7930 c3        1 2TE      0.591900
      7 F2          2.5000   -0.4080   -3.7340 f         1 2TE     -0.236300
      8 F3          1.5470   -1.3090   -2.0040 f         1 2TE     -0.236300
      9 F1          2.4930   -2.5600   -3.5020 f         1 2TE     -0.236300
     10 O3          5.0360   -1.3120   -3.1080 oh        1 2TE     -0.578800
     11 C9          4.3300   -2.4630   -1.1690 ca        1 2TE     -0.135300
     12 C10         5.4930   -3.2270   -1.3220 ca        1 2TE     -0.068000
     13 C11         5.7520   -4.3090   -0.4910 ca        1 2TE     -0.179500
     14 C8          3.4270   -2.8130   -0.1610 ca        1 2TE     -0.068000
     15 C7          3.6710   -3.8980    0.6730 ca        1 2TE     -0.179500
     16 C6          4.8430   -4.6740    0.5320 ca        1 2TE      0.163600
     17 N1          5.1760   -5.7220    1.4210 nh        1 2TE     -0.634000
     18 C2          4.3430   -5.9110    2.6070 c3        1 2TE      0.276600
     19 C3          5.0710   -6.8360    3.6390 c3        1 2TE      0.232800
     20 C13         3.0040   -6.4180    2.3750 c1        1 2TE     -0.196100
     21 C14         1.8900   -6.8260    2.2120 c1        1 2TE     -0.102100
     22 C15         0.5640   -7.3150    2.0220 c3        1 2TE     -0.031000
     23 C1          5.6150   -6.9730    0.8240 c3        1 2TE      0.177800
     24 C4          6.3180   -7.8860    1.8550 c3        1 2TE      0.230800
     25 N2          5.5780   -8.0570    3.0770 n3        1 2TE     -0.809500
     26 S1          5.3690   -9.5200    3.7750 sy        1 2TE      1.530200
     27 O1          6.6080  -10.1980    3.8130 o         1 2TE     -0.657800
     28 O2          4.6990   -9.3500    5.0080 o         1 2TE     -0.657800
     29 C5          4.3730  -10.3410    2.7200 ca        1 2TE     -0.586800
     30 C19         4.8900  -11.2080    1.7400 ca        1 2TE      0.061000
     31 C18         4.0460  -11.9140    0.9060 ca        1 2TE     -0.351300
     32 C17         2.6260  -11.7470    1.0560 ca        1 2TE      0.730200
     33 N4          1.7660  -12.4050    0.2130 nh        1 2TE     -0.960500
     34 N3          2.1030  -10.9110    2.0270 nb        1 2TE     -0.761000
     35 C16         2.9650  -10.2550    2.8030 ca        1 2TE      0.570200
     36 H23         1.2080   -0.1570    2.1300 hc        1 2TE      0.058367
     37 H23A        2.6660    0.5760    2.9340 hc        1 2TE      0.058367
     38 H23B        1.5140    1.6310    2.0010 hc        1 2TE      0.058367
     39 H20         3.9110    0.8800   -2.0690 hc        1 2TE      0.079700
     40 H20A        5.2790    0.2010   -1.0750 hc        1 2TE      0.079700
     41 HO3         4.8830   -0.5330   -3.6610 ho        1 2TE      0.419000
     42 H10         6.2170   -2.9690   -2.1130 ha        1 2TE      0.150500
     43 H11         6.6900   -4.8660   -0.6340 ha        1 2TE      0.141500
     44 H8          2.5040   -2.2240   -0.0230 ha        1 2TE      0.150500
     45 H7          2.9200   -4.1450    1.4400 ha        1 2TE      0.141500
     46 H2          4.2480   -4.8940    3.1070 h1        1 2TE      0.085700
     47 H3          4.3440   -7.0730    4.4670 h1        1 2TE      0.070200
     48 H3A         5.9290   -6.2440    4.0710 h1        1 2TE      0.070200
     49 H15         0.2080   -7.0890    0.9830 hc        1 2TE      0.062367
     50 H15A        0.5320   -8.4270    2.1740 hc        1 2TE      0.062367
     51 H15B       -0.1400   -6.8360    2.7510 hc        1 2TE      0.062367
     52 H1          4.7440   -7.5300    0.3730 h1        1 2TE      0.050700
     53 H1A         6.3540   -6.7590    0.0050 h1        1 2TE      0.050700
     54 H4          6.4710   -8.8950    1.3750 h1        1 2TE      0.052700
     55 H4A         7.3320   -7.4500    2.0920 h1        1 2TE      0.052700
     56 H19         5.9850  -11.3330    1.6550 ha        1 2TE      0.158000
     57 H18         4.4480  -12.5930    0.1430 ha        1 2TE      0.147000
     58 HN4         2.1320  -13.0910   -0.3980 hn        1 2TE      0.442300
     59 HN4A        0.7860  -12.3590    0.3530 hn        1 2TE      0.442300
     60 H16         2.4980   -9.6070    3.5760 h4        1 2TE      0.042100
@<TRIPOS>BOND
     1    1    2 1   
     2    1   36 1   
     3    1   37 1   
     4    1   38 1   
     5    2    3 3   
     6    3    4 1   
     7    4    5 1   
     8    4   39 1   
     9    4   40 1   
    10    5    6 1   
    11    5   10 1   
    12    5   11 1   
    13    6    7 1   
    14    6    8 1   
    15    6    9 1   
    16   10   41 1   
    17   11   12 ar  
    18   11   14 ar  
    19   12   13 ar  
    20   12   42 1   
    21   13   16 ar  
    22   13   43 1   
    23   14   15 ar  
    24   14   44 1   
    25   15   16 ar  
    26   15   45 1   
    27   16   17 1   
    28   17   18 1   
    29   17   23 1   
    30   18   19 1   
    31   18   20 1   
    32   18   46 1   
    33   19   25 1   
    34   19   47 1   
    35   19   48 1   
    36   20   21 3   
    37   21   22 1   
    38   22   49 1   
    39   22   50 1   
    40   22   51 1   
    41   23   24 1   
    42   23   52 1   
    43   23   53 1   
    44   24   25 1   
    45   24   54 1   
    46   24   55 1   
    47   25   26 1   
    48   26   27 2   
    49   26   28 2   
    50   26   29 1   
    51   29   30 ar  
    52   29   35 ar  
    53   30   31 ar  
    54   30   56 1   
    55   31   32 ar  
    56   31   57 1   
    57   32   33 1   
    58   32   34 ar  
    59   33   58 1   
    60   33   59 1   
    61   34   35 ar  
    62   35   60 1   
@<TRIPOS>SUBSTRUCTURE
     1 2TE         1 TEMP              0 ****  ****    0 ROOT
