@<TRIPOS>MOLECULE
molecule
   60    62     1     0     0
SMALL
bcc


@<TRIPOS>ATOM
      1 C23          0.0000     0.0000     0.0000 c3         1 2TE      -0.018000
      2 C22          1.4730     0.0000     0.0000 c1         1 2TE      -0.097100
      3 C21          2.6460     0.0000     0.0200 c1         1 2TE      -0.168100
      4 C20          4.1180    -0.0010     0.0210 c3         1 2TE      -0.103300
      5 C12          4.5240     0.0800     1.2570 c3         1 2TE       0.383100
      6 C24          4.2740    -1.0090     2.1340 c3         1 2TE       0.578900
      7 F2           2.8950    -1.9930     1.8670 f          1 2TE      -0.244300
      8 F3           5.4320    -1.9480     1.9700 f          1 2TE      -0.244300
      9 F1           4.2400    -0.9400     3.4180 f          1 2TE      -0.244300
     10 O3           5.5960     0.3640     1.5400 oh         1 2TE      -0.494800
     11 C9           3.4370     1.1660     1.9340 ca         1 2TE      -0.240300
     12 C10          2.0740     1.1590     1.9680 ca         1 2TE      -0.109000
     13 C11          1.3200     2.1540     2.5810 ca         1 2TE      -0.162000
     14 C8           3.7880     2.4100     2.6630 ca         1 2TE      -0.109000
     15 C7           3.2220     3.5330     2.9220 ca         1 2TE      -0.162000
     16 C6           1.7970     3.3710     2.6950 ca         1 2TE       0.180600
     17 N1           1.0890     4.3150     3.2740 nh         1 2TE      -0.719000
     18 C2           0.7900     4.6600     4.7740 c3         1 2TE       0.337600
     19 C3           2.3350     5.3380     4.8820 c3         1 2TE       0.199800
     20 C13          0.5460     3.5670     5.4640 c1         1 2TE      -0.172100
     21 C14          0.5370     2.4270     6.0030 c1         1 2TE      -0.026100
     22 C15          0.1970     1.1810     6.8380 c3         1 2TE      -0.020000
     23 C1           1.3080     5.3890     2.3610 c3         1 2TE       0.243800
     24 C4           2.7160     6.3300     2.6080 c3         1 2TE       0.015800
     25 N2           2.8250     6.6280     4.3840 n3         1 2TE      -0.839500
     26 S1           2.6540     8.0990     4.8120 sy         1 2TE       1.391200
     27 O1           3.8330     7.9830     6.0760 o          1 2TE      -0.659300
     28 O2           1.7820     8.3160     5.5660 o          1 2TE      -0.659300
     29 C5           3.5460     9.1500     3.7350 ca         1 2TE      -0.345800
     30 C19          4.9050     9.1130     3.9070 ca         1 2TE       0.036000
     31 C18          5.4690    10.0250     2.9530 ca         1 2TE      -0.280300
     32 C17          4.6130    10.7710     2.0450 ca         1 2TE       0.764200
     33 N4           5.2280    11.5340     1.0400 nv         1 2TE      -1.092500
     34 N3           3.5860    10.3560     1.6880 nb         1 2TE      -0.766000
     35 C16          2.6440     9.8560     2.8680 ca         1 2TE       0.435200
     36 H23         -0.3190    -1.0250    -0.1420 hc         1 2TE       0.065367
     37 H23A        -0.1970     0.8680    -0.6180 hc         1 2TE       0.065367
     38 H23B        -0.3420     0.1050     1.0230 hc         1 2TE       0.065367
     39 H20          4.3420     0.5120    -0.9070 hc         1 2TE       0.099700
     40 H20A         4.3810    -0.9710    -0.3850 hc         1 2TE       0.099700
     41 HO3          6.0930     0.5570     0.7630 ho         1 2TE       0.455000
     42 H10          1.7080     0.1390     1.9910 ha         1 2TE       0.117000
     43 H11          0.2910     1.8780     2.3850 ha         1 2TE       0.163500
     44 H8           4.8330     2.2660     2.9100 ha         1 2TE       0.117000
     45 H7           3.8750     4.2270     3.4360 ha         1 2TE       0.163500
     46 H2           0.0770     5.4490     4.9860 h1         1 2TE       0.101700
     47 H3           3.0310     4.5080     4.8710 h1         1 2TE       0.066200
     48 H3A          2.1720     5.4460     5.9480 h1         1 2TE       0.066200
     49 H15         -0.8130     0.8470     6.6330 hc         1 2TE       0.057367
     50 H15A         0.6020     0.2990     6.3570 hc         1 2TE       0.057367
     51 H15B         0.1920     1.0680     7.9150 hc         1 2TE       0.057367
     52 H1           0.8140     6.3300     2.5740 h1         1 2TE       0.069700
     53 H1A          1.5690     5.1430     1.3390 h1         1 2TE       0.069700
     54 H4           3.3310     5.4400     2.6660 h1         1 2TE       0.100200
     55 H4A          3.0520     7.3420     2.4180 h1         1 2TE       0.100200
     56 H19          5.7230     8.8020     4.5460 ha         1 2TE       0.223000
     57 H18          6.5170    10.2650     2.8210 ha         1 2TE       0.145000
     58 HN4          5.1040    11.6030     0.0490 hn         1 2TE       0.412300
     59 HN4A         5.9470    12.2270     1.1180 hn         1 2TE       0.412300
     60 H16          1.5920     9.7270     2.6440 h4         1 2TE       0.061100
@<TRIPOS>BOND
     1     2     1 1
     2     1    36 1
     3     1    37 1
     4     1    38 1
     5     3     2 3
     6     4     3 1
     7     5     4 1
     8     4    39 1
     9     4    40 1
    10    11     5 1
    11    10     5 1
    12     5     6 1
    13     8     6 1
    14     6     7 1
    15     6     9 1
    16    10    41 1
    17    12    11 ar
    18    11    14 ar
    19    13    12 ar
    20    12    42 1
    21    13    16 ar
    22    13    43 1
    23    15    14 ar
    24    14    44 1
    25    16    15 ar
    26    15    45 1
    27    17    16 1
    28    18    17 1
    29    17    23 1
    30    19    18 1
    31    20    18 1
    32    18    46 1
    33    19    25 1
    34    19    47 1
    35    19    48 1
    36    21    20 3
    37    22    21 1
    38    22    49 1
    39    22    50 1
    40    22    51 1
    41    24    23 1
    42    23    52 1
    43    23    53 1
    44    25    24 1
    45    24    54 1
    46    24    55 1
    47    26    25 1
    48    27    26 2
    49    26    28 2
    50    26    29 1
    51    35    29 ar
    52    29    30 ar
    53    30    31 ar
    54    30    56 1
    55    32    31 ar
    56    31    57 1
    57    34    32 ar
    58    32    33 1
    59    33    58 1
    60    33    59 1
    61    35    34 ar
    62    35    60 1
@<TRIPOS>SUBSTRUCTURE
     1 2TE         1 TEMP              0 ****  ****    0 ROOT
