@<TRIPOS>MOLECULE
2TF
   56    58     1     0     0
SMALL
bcc


@<TRIPOS>ATOM
      1 C19          0.0000     0.0000     0.0000 ca         1 2TF       0.086000
      2 C18          1.3830     0.0000     0.0000 ca         1 2TF      -0.336300
      3 C17          2.0600     0.0000     1.2140 ca         1 2TF       0.548200
      4 N4           3.4500     0.0010     1.2290 nv         1 2TF      -0.515500
      5 N3           1.3920     0.0010     2.3580 nb         1 2TF      -0.676000
      6 C16          0.0730     0.0000     2.3890 ca         1 2TF       0.560200
      7 C5          -0.6630     0.0050     1.2200 ca         1 2TF      -0.353800
      8 S1          -2.4230     0.0060     1.2770 sy         1 2TF       1.063200
      9 O1          -2.8650    -0.5340     0.0390 o          1 2TF      -0.587800
     10 O2          -2.7840    -0.5440     2.5370 o          1 2TF      -0.587800
     11 N2          -2.9140     1.5870     1.2990 n3         1 2TF      -0.537500
     12 C3          -3.0910     2.3050     2.5710 c3         1 2TF       0.230800
     13 C2          -4.4780     2.9550     2.5740 c3         1 2TF       0.242600
     14 C13         -5.5110     1.9070     2.5870 c1         1 2TF      -0.225100
     15 C14         -6.3510     1.0850     2.5930 c1         1 2TF      -0.077100
     16 C15         -7.4570     0.3230     2.5280 c3         1 2TF       0.098000
     17 C4          -3.1780     2.3140     0.0470 c3         1 2TF       0.230800
     18 C1          -4.5620     2.9630     0.1450 c3         1 2TF       0.128800
     19 N1          -4.6310     3.7800     1.3680 nh         1 2TF      -0.359000
     20 C6          -5.8170     4.5180     1.4140 ca         1 2TF       0.041600
     21 C11         -6.6620     4.4100     2.5110 ca         1 2TF      -0.151500
     22 C10         -7.8330     5.1400     2.5540 ca         1 2TF      -0.045500
     23 C7          -6.1500     5.3640     0.3650 ca         1 2TF      -0.151500
     24 C8          -7.3230     6.0930     0.4140 ca         1 2TF      -0.045500
     25 C9          -8.1640     5.9800     1.5050 ca         1 2TF      -0.150300
     26 C12         -9.4430     6.7750     1.5550 c3         1 2TF       0.185100
     27 C21         -9.1770     8.1290     2.2160 c3         1 2TF       0.549900
     28 F2         -10.3640     8.8660     2.2620 f          1 2TF      -0.203300
     29 F3          -8.7030     7.9250     3.5170 f          1 2TF      -0.203300
     30 F1          -8.2200     8.8290     1.4750 f          1 2TF      -0.203300
     31 O3         -10.4210     6.0580     2.3110 oh         1 2TF      -0.561800
     32 C20         -9.9620     6.9960     0.1320 c3         1 2TF       0.177400
     33 O4         -11.1080     7.8480     0.1690 oh         1 2TF      -0.592800
     34 H1          -0.5420    -0.0000    -0.9380 ha         1 2TF       0.120000
     35 H2           1.9250    -0.0040    -0.9380 ha         1 2TF       0.121000
     36 H3           3.9410     0.2680     2.0590 hn         1 2TF       0.272800
     37 H4           3.9580    -0.2180     0.3950 hn         1 2TF       0.272800
     38 H5          -0.4460     0.0010     3.3400 h4         1 2TF      -0.004900
     39 H6          -2.2480     2.9690     2.7190 h1         1 2TF       0.033200
     40 H7          -3.1220     1.5840     3.3790 h1         1 2TF       0.033200
     41 H8          -4.5800     3.5810     3.4530 h1         1 2TF       0.052700
     42 H9          -7.3660    -0.5050     3.2210 hc         1 2TF       0.021700
     43 H10         -8.3220     0.9200     2.7900 hc         1 2TF       0.021700
     44 H11         -7.5730    -0.0590     1.5210 hc         1 2TF       0.021700
     45 H12         -2.3470     2.9790    -0.1540 h1         1 2TF       0.026200
     46 H13         -3.2650     1.5980    -0.7610 h1         1 2TF       0.026200
     47 H14         -4.7140     3.5940    -0.7230 h1         1 2TF       0.030200
     48 H15         -5.3140     2.1840     0.1570 h1         1 2TF       0.030200
     49 H16         -6.4020     3.7540     3.3330 ha         1 2TF       0.127500
     50 H17         -8.4920     5.0570     3.4090 ha         1 2TF       0.117000
     51 H18         -5.4910     5.4530    -0.4900 ha         1 2TF       0.127500
     52 H19         -7.5850     6.7540    -0.4040 ha         1 2TF       0.117000
     53 H20        -11.1670     6.6140     2.4660 ho         1 2TF       0.413000
     54 H21         -9.1770     7.4320    -0.4750 h1         1 2TF       0.016700
     55 H22        -10.2630     6.0470    -0.2950 h1         1 2TF       0.016700
     56 H23        -11.4630     7.9360    -0.7000 ho         1 2TF       0.403000
@<TRIPOS>BOND
     1     1     2 ar  
     2     1     7 ar  
     3     1    34 1   
     4     2     3 ar  
     5     2    35 1   
     6     3     4 1   
     7     3     5 ar  
     8     4    36 1   
     9     4    37 1   
    10     5     6 ar  
    11     6     7 ar  
    12     6    38 1   
    13     7     8 1   
    14     8     9 2   
    15     8    10 2   
    16     8    11 1   
    17    11    12 1   
    18    11    17 1   
    19    12    13 1   
    20    12    39 1   
    21    12    40 1   
    22    13    14 1   
    23    13    19 1   
    24    13    41 1   
    25    14    15 3   
    26    15    16 1   
    27    16    42 1   
    28    16    43 1   
    29    16    44 1   
    30    17    18 1   
    31    17    45 1   
    32    17    46 1   
    33    18    19 1   
    34    18    47 1   
    35    18    48 1   
    36    19    20 1   
    37    20    21 ar  
    38    20    23 ar  
    39    21    22 ar  
    40    21    49 1   
    41    22    25 ar  
    42    22    50 1   
    43    23    24 ar  
    44    23    51 1   
    45    24    25 ar  
    46    24    52 1   
    47    25    26 1   
    48    26    27 1   
    49    26    31 1   
    50    26    32 1   
    51    27    28 1   
    52    27    29 1   
    53    27    30 1   
    54    31    53 1   
    55    32    33 1   
    56    32    54 1   
    57    32    55 1   
    58    33    56 1   
@<TRIPOS>SUBSTRUCTURE
     1 2TF         1 TEMP              0 ****  ****    0 ROOT
