@<TRIPOS>MOLECULE
molecule
   56    58     1     0     0
SMALL
bcc


@<TRIPOS>ATOM
      1 C19          0.0000     0.0000     0.0000 ca         1 2TF       0.043000
      2 C18          1.3830     0.0000     0.0000 ca         1 2TF      -0.342300
      3 C17          2.0600     0.0000     1.2140 ca         1 2TF       0.746200
      4 N4           3.4500     0.0010     1.2290 nv         1 2TF      -1.003500
      5 N3           1.3920     0.0010     2.3580 nb         1 2TF      -0.772000
      6 C16          0.0730     0.0000     2.3890 ca         1 2TF       0.567200
      7 C5          -0.6630     0.0050     1.2200 ca         1 2TF      -0.505800
      8 S1          -2.4230     0.0060     1.2770 sy         1 2TF       1.436200
      9 O1          -2.8650    -0.5340     0.0390 o          1 2TF      -0.638300
     10 O2          -2.7840    -0.5440     2.5370 o          1 2TF      -0.638300
     11 N2          -2.9140     1.5870     1.2990 n3         1 2TF      -0.823500
     12 C3          -3.0910     2.3050     2.5710 c3         1 2TF       0.242800
     13 C2          -4.4780     2.9550     2.5740 c3         1 2TF       0.259600
     14 C13         -5.5110     1.9070     2.5870 c1         1 2TF      -0.208100
     15 C14         -6.3510     1.0850     2.5930 c1         1 2TF      -0.076100
     16 C15         -7.4570     0.3230     2.5280 c3         1 2TF      -0.036000
     17 C4          -3.1780     2.3140     0.0470 c3         1 2TF       0.234800
     18 C1          -4.5620     2.9630     0.1450 c3         1 2TF       0.161800
     19 N1          -4.6310     3.7800     1.3680 nh         1 2TF      -0.584000
     20 C6          -5.8170     4.5180     1.4140 ca         1 2TF       0.119600
     21 C11         -6.6620     4.4100     2.5110 ca         1 2TF      -0.168000
     22 C10         -7.8330     5.1400     2.5540 ca         1 2TF      -0.071000
     23 C7          -6.1500     5.3640     0.3650 ca         1 2TF      -0.168000
     24 C8          -7.3230     6.0930     0.4140 ca         1 2TF      -0.071000
     25 C9          -8.1640     5.9800     1.5050 ca         1 2TF      -0.131300
     26 C12         -9.4430     6.7750     1.5550 c3         1 2TF       0.179100
     27 C21         -9.1770     8.1290     2.2160 c3         1 2TF       0.592900
     28 F2         -10.3640     8.8660     2.2620 f          1 2TF      -0.218967
     29 F3          -8.7030     7.9250     3.5170 f          1 2TF      -0.218967
     30 F1          -8.2200     8.8290     1.4750 f          1 2TF      -0.218967
     31 O3         -10.4210     6.0580     2.3110 oh         1 2TF      -0.577800
     32 C20         -9.9620     6.9960     0.1320 c3         1 2TF       0.107400
     33 O4         -11.1080     7.8480     0.1690 oh         1 2TF      -0.610800
     34 H1          -0.5420    -0.0000    -0.9380 ha         1 2TF       0.153000
     35 H2           1.9250    -0.0040    -0.9380 ha         1 2TF       0.141000
     36 H3           3.9410     0.2680     2.0590 hn         1 2TF       0.444800
     37 H4           3.9580    -0.2180     0.3950 hn         1 2TF       0.444800
     38 H5          -0.4460     0.0010     3.3400 h4         1 2TF       0.041100
     39 H6          -2.2480     2.9690     2.7190 h1         1 2TF       0.067700
     40 H7          -3.1220     1.5840     3.3790 h1         1 2TF       0.067700
     41 H8          -4.5800     3.5810     3.4530 h1         1 2TF       0.090700
     42 H9          -7.3660    -0.5050     3.2210 hc         1 2TF       0.062367
     43 H10         -8.3220     0.9200     2.7900 hc         1 2TF       0.062367
     44 H11         -7.5730    -0.0590     1.5210 hc         1 2TF       0.062367
     45 H12         -2.3470     2.9790    -0.1540 h1         1 2TF       0.060700
     46 H13         -3.2650     1.5980    -0.7610 h1         1 2TF       0.060700
     47 H14         -4.7140     3.5940    -0.7230 h1         1 2TF       0.057700
     48 H15         -5.3140     2.1840     0.1570 h1         1 2TF       0.057700
     49 H16         -6.4020     3.7540     3.3330 ha         1 2TF       0.145500
     50 H17         -8.4920     5.0570     3.4090 ha         1 2TF       0.143500
     51 H18         -5.4910     5.4530    -0.4900 ha         1 2TF       0.145500
     52 H19         -7.5850     6.7540    -0.4040 ha         1 2TF       0.143500
     53 H20        -11.1670     6.6140     2.4660 ho         1 2TF       0.428000
     54 H21         -9.1770     7.4320    -0.4750 h1         1 2TF       0.048700
     55 H22        -10.2630     6.0470    -0.2950 h1         1 2TF       0.048700
     56 H23        -11.4630     7.9360    -0.7000 ho         1 2TF       0.414000
@<TRIPOS>BOND
     1     9     8 2   
     2    16    15 1   
     3     6     5 ar  
     4     6     7 ar  
     5     5     3 ar  
     6     8     7 1   
     7     8    10 2   
     8     8    11 1   
     9    15    14 3   
    10     7     1 ar  
    11    14    13 1   
    12    12    11 1   
    13    12    13 1   
    14     3     4 1   
    15     3     2 ar  
    16    11    17 1   
    17    13    19 1   
    18     1     2 ar  
    19    17    18 1   
    20    19    18 1   
    21    19    20 1   
    22    21    20 ar  
    23    21    22 ar  
    24    20    23 ar  
    25    22    25 ar  
    26    23    24 ar  
    27    25    24 ar  
    28    25    26 1   
    29    31    26 1   
    30    26    32 1   
    31    26    27 1   
    32    28    27 1   
    33    32    33 1   
    34    27    30 1   
    35    27    29 1   
    36     1    34 1   
    37     2    35 1   
    38     4    36 1   
    39     4    37 1   
    40     6    38 1   
    41    12    39 1   
    42    12    40 1   
    43    13    41 1   
    44    16    42 1   
    45    16    43 1   
    46    16    44 1   
    47    17    45 1   
    48    17    46 1   
    49    18    47 1   
    50    18    48 1   
    51    21    49 1   
    52    22    50 1   
    53    23    51 1   
    54    24    52 1   
    55    31    53 1   
    56    32    54 1   
    57    32    55 1   
    58    33    56 1   
@<TRIPOS>SUBSTRUCTURE
     1 2TF         1 TEMP              0 ****  ****    0 ROOT
