@<TRIPOS>MOLECULE
molecule
   52    54     1     0     0
SMALL
bcc


@<TRIPOS>ATOM
      1 C19          0.0000     0.0000     0.0000 ca         1 2TG       0.035000
      2 C18          1.3830     0.0000     0.0000 ca         1 2TG      -0.349300
      3 C17          2.0590     0.0000     1.2160 ca         1 2TG       0.692200
      4 N4           3.4490     0.0010     1.2310 nv         1 2TG      -1.021500
      5 N3           1.3910     0.0010     2.3590 nb         1 2TG      -0.772000
      6 C16          0.0710     0.0010     2.3890 ca         1 2TG       0.552200
      7 C15         -0.6630     0.0000     1.2200 ca         1 2TG      -0.462800
      8 S2          -2.4250     0.0020     1.2760 sy         1 2TG       1.438200
      9 O2          -2.7850     0.5460     2.5370 o          1 2TG      -0.628800
     10 O3          -2.8650     0.5460     0.0400 o          1 2TG      -0.628800
     11 N2          -2.9160    -1.5800     1.2920 n3         1 2TG      -0.741500
     12 C3          -3.0990    -2.3010     2.5610 c3         1 2TG       0.214800
     13 C2          -2.3250    -3.6210     2.4870 c3         1 2TG       0.235600
     14 C5          -0.8810    -3.3420     2.4190 c1         1 2TG      -0.220100
     15 C6           0.2720    -3.1370     2.3530 c1         1 2TG      -0.084100
     16 C7           1.6780    -2.4550     2.3000 c3         1 2TG      -0.055000
     17 C4          -3.1850    -2.3000     0.0380 c3         1 2TG       0.256800
     18 C1          -2.4080    -3.6200     0.0580 c3         1 2TG       0.108800
     19 N1          -2.7390    -4.3610     1.2870 nh         1 2TG      -0.581000
     20 C8          -2.1780    -5.6400     1.2700 ca         1 2TG       0.176600
     21 C13         -2.4470    -6.5040     0.2160 ca         1 2TG      -0.178000
     22 C12         -1.8920    -7.7680     0.2010 ca         1 2TG      -0.002000
     23 C9          -1.3470    -6.0500     2.3040 ca         1 2TG      -0.178000
     24 C10         -0.7950    -7.3150     2.2840 ca         1 2TG      -0.002000
     25 C11         -1.0690    -8.1750     1.2360 ca         1 2TG      -0.260500
     26 S1          -0.3620    -9.7890     1.2140 sy         1 2TG       0.939000
     27 C14          1.2350    -9.7010     0.3600 c3         1 2TG       0.496700
     28 F2           2.0800    -8.8180     1.0380 f          1 2TG      -0.220300
     29 F3           1.8180   -10.9730     0.3280 f          1 2TG      -0.220300
     30 F1           1.0400    -9.2460    -0.9490 f          1 2TG      -0.220300
     31 O1          -0.2940   -10.2640     2.5520 o          1 2TG      -0.572800
     32 N5          -1.2610   -10.6960     0.4390 n2         1 2TG      -0.894900
     33 H1          -0.4610     0.1350    -0.9710 ha         1 2TG       0.160000
     34 H2           1.8830    -0.2140    -0.9360 ha         1 2TG       0.144000
     35 H3           3.5530     0.4370     0.3360 hn         1 2TG       0.470300
     36 H4           3.9730    -0.5060     1.9170 hn         1 2TG       0.470300
     37 H5          -0.2500    -0.0470     3.4220 h4         1 2TG       0.046100
     38 H6          -2.4800    -2.3180     3.4500 h1         1 2TG       0.087700
     39 H7          -4.0890    -2.4180     2.9840 h1         1 2TG       0.087700
     40 H8          -2.5420    -4.2140     3.3680 h1         1 2TG       0.085700
     41 H9           1.7770    -1.6020     2.9600 hc         1 2TG       0.073700
     42 H10          2.1640    -2.5260     1.3350 hc         1 2TG       0.073700
     43 H11          2.2580    -3.1130     2.9360 hc         1 2TG       0.073700
     44 H12         -3.9900    -2.4560    -0.6690 h1         1 2TG       0.063200
     45 H13         -2.6430    -1.9490    -0.8320 h1         1 2TG       0.063200
     46 H14         -1.9860    -4.1690    -0.7750 h1         1 2TG       0.052200
     47 H15         -1.3550    -3.4200     0.2160 h1         1 2TG       0.052200
     48 H16         -3.0660    -6.3960    -0.6670 ha         1 2TG       0.154000
     49 H17         -1.7480    -8.4390    -0.6370 ha         1 2TG       0.156000
     50 H18         -1.6180    -5.5980     3.2510 ha         1 2TG       0.154000
     51 H19         -0.4100    -7.8690     3.1310 ha         1 2TG       0.156000
     52 H21         -1.3340   -11.6670     0.2090 hn         1 2TG       0.528400
@<TRIPOS>BOND
     1     1     2 ar
     2     1     7 ar
     3     2     3 ar
     4     3     4 1
     5     3     5 ar
     6     5     6 ar
     7     6     7 ar
     8     7     8 1
     9     8     9 2
    10     8    10 2
    11     8    11 1
    12    11    12 1
    13    11    17 1
    14    12    13 1
    15    13    14 1
    16    13    19 1
    17    14    15 3
    18    15    16 1
    19    17    18 1
    20    18    19 1
    21    19    20 1
    22    20    21 ar
    23    20    23 ar
    24    21    22 ar
    25    22    25 ar
    26    23    24 ar
    27    24    25 ar
    28    25    26 1
    29    26    27 1
    30    26    31 2
    31    26    32 2
    32    27    28 1
    33    27    29 1
    34    27    30 1
    35     1    33 1
    36     2    34 1
    37     4    35 1
    38     4    36 1
    39     6    37 1
    40    12    38 1
    41    12    39 1
    42    13    40 1
    43    16    41 1
    44    16    42 1
    45    16    43 1
    46    17    44 1
    47    17    45 1
    48    18    46 1
    49    18    47 1
    50    21    48 1
    51    22    49 1
    52    23    50 1
    53    24    51 1
    54    32    52 1
@<TRIPOS>SUBSTRUCTURE
     1 2TG         1 TEMP              0 ****  ****    0 ROOT
