@<TRIPOS>MOLECULE
2TG
   52    54     1     0     0
SMALL
bcc


@<TRIPOS>ATOM
      1 C19          0.0000     0.0000     0.0000 ca         1 2TG       0.091000
      2 C18          1.3830     0.0000     0.0000 ca         1 2TG      -0.340300
      3 C17          2.0590     0.0000     1.2160 ca         1 2TG       0.545200
      4 N4           3.4490     0.0010     1.2310 nv         1 2TG      -0.508500
      5 N3           1.3910     0.0010     2.3590 nb         1 2TG      -0.679000
      6 C16          0.0710     0.0010     2.3890 ca         1 2TG       0.565200
      7 C15         -0.6630     0.0000     1.2200 ca         1 2TG      -0.350800
      8 S2          -2.4250     0.0020     1.2760 sy         1 2TG       1.067200
      9 O2          -2.7850     0.5460     2.5370 o          1 2TG      -0.584800
     10 O3          -2.8650     0.5460     0.0400 o          1 2TG      -0.584800
     11 N2          -2.9160    -1.5800     1.2920 n3         1 2TG      -0.542500
     12 C3          -3.0990    -2.3010     2.5610 c3         1 2TG       0.246800
     13 C2          -2.3250    -3.6210     2.4870 c3         1 2TG       0.235600
     14 C5          -0.8810    -3.3420     2.4190 c1         1 2TG      -0.245100
     15 C6           0.2680    -3.1080     2.3810 c1         1 2TG      -0.069100
     16 C7           1.5780    -2.7690     2.2070 c3         1 2TG       0.008000
     17 C4          -3.1850    -2.3000     0.0380 c3         1 2TG       0.245800
     18 C1          -2.4080    -3.6200     0.0580 c3         1 2TG       0.122800
     19 N1          -2.7390    -4.3610     1.2870 nh         1 2TG      -0.349000
     20 C8          -2.1780    -5.6400     1.2700 ca         1 2TG       0.085600
     21 C13         -2.4470    -6.5040     0.2160 ca         1 2TG      -0.175000
     22 C12         -1.8920    -7.7680     0.2010 ca         1 2TG       0.034000
     23 C9          -1.3470    -6.0500     2.3040 ca         1 2TG      -0.175000
     24 C10         -0.7950    -7.3150     2.2840 ca         1 2TG       0.034000
     25 C11         -1.0690    -8.1750     1.2360 ca         1 2TG      -0.075500
     26 S1          -0.3620    -9.7890     1.2140 sy         1 2TG       0.473000
     27 C14          1.2350    -9.7010     0.3600 c3         1 2TG       0.598700
     28 F2           2.0800    -8.8180     1.0380 f          1 2TG      -0.195633
     29 F3           1.8180   -10.9730     0.3280 f          1 2TG      -0.195633
     30 F1           1.0400    -9.2460    -0.9490 f          1 2TG      -0.195633
     31 O1          -0.2940   -10.2640     2.5520 o          1 2TG      -0.528800
     32 N5          -1.2610   -10.6960     0.4390 n2         1 2TG      -0.661900
     33 H1          -0.5420     0.0000    -0.9380 ha         1 2TG       0.122000
     34 H2           1.9240    -0.0000    -0.9380 ha         1 2TG       0.125000
     35 H3           3.9400     0.0130     2.1030 hn         1 2TG       0.275800
     36 H4           3.9590    -0.0180     0.3700 hn         1 2TG       0.275800
     37 H5          -0.4490     0.0020     3.3390 h4         1 2TG       0.000100
     38 H6          -2.5630    -1.7760     3.3420 h1         1 2TG       0.033700
     39 H7          -4.1540    -2.3220     2.8030 h1         1 2TG       0.033700
     40 H8          -2.5420    -4.2140     3.3680 h1         1 2TG       0.055700
     41 H9           1.7030    -1.7080     2.3850 hc         1 2TG       0.042700
     42 H10          2.1910    -3.3270     2.9050 hc         1 2TG       0.042700
     43 H11          1.8810    -3.0030     1.1940 hc         1 2TG       0.042700
     44 H12         -2.7040    -1.7740    -0.7770 h1         1 2TG       0.027200
     45 H13         -4.2540    -2.3200    -0.1310 h1         1 2TG       0.027200
     46 H14         -1.3480    -3.4040     0.0110 h1         1 2TG       0.028700
     47 H15         -2.6920    -4.2060    -0.8080 h1         1 2TG       0.028700
     48 H16         -3.0920    -6.1850    -0.5940 ha         1 2TG       0.136000
     49 H17         -2.1010    -8.4420    -0.6210 ha         1 2TG       0.127000
     50 H18         -1.1320    -5.3760     3.1250 ha         1 2TG       0.136000
     51 H19         -0.1460    -7.6360     3.0900 ha         1 2TG       0.127000
     52 H21         -1.1210   -11.6860     0.4700 hn         1 2TG       0.414400
@<TRIPOS>BOND
     1     1     2 ar  
     2     1     7 ar  
     3     1    33 1   
     4     2     3 ar  
     5     2    34 1   
     6     3     4 1   
     7     3     5 ar  
     8     4    35 1   
     9     4    36 1   
    10     5     6 ar  
    11     6     7 ar  
    12     6    37 1   
    13     7     8 1   
    14     8     9 2   
    15     8    10 2   
    16     8    11 1   
    17    11    12 1   
    18    11    17 1   
    19    12    13 1   
    20    12    38 1   
    21    12    39 1   
    22    13    14 1   
    23    13    19 1   
    24    13    40 1   
    25    14    15 3   
    26    15    16 1   
    27    16    41 1   
    28    16    42 1   
    29    16    43 1   
    30    17    18 1   
    31    17    44 1   
    32    17    45 1   
    33    18    19 1   
    34    18    46 1   
    35    18    47 1   
    36    19    20 1   
    37    20    21 ar  
    38    20    23 ar  
    39    21    22 ar  
    40    21    48 1   
    41    22    25 ar  
    42    22    49 1   
    43    23    24 ar  
    44    23    50 1   
    45    24    25 ar  
    46    24    51 1   
    47    25    26 1   
    48    26    27 1   
    49    26    31 2   
    50    26    32 2   
    51    27    28 1   
    52    27    29 1   
    53    27    30 1   
    54    32    52 1   
@<TRIPOS>SUBSTRUCTURE
     1 2TG         1 TEMP              0 ****  ****    0 ROOT
