@<TRIPOS>MOLECULE
molecule
   35    38     1     0     0
SMALL
bcc


@<TRIPOS>ATOM
      1 O1           0.0000     0.0000     0.0000 oh         1 2TH      -0.581800
      2 C1           1.4290     0.0000     0.0000 c3         1 2TH       0.184400
      3 C2           1.9540     0.0000     1.4200 ca         1 2TH      -0.122300
      4 C3           2.3640     1.2740     1.7670 ca         1 2TH      -0.073300
      5 C4           2.8820     1.5110     3.0290 ca         1 2TH      -0.118000
      6 C5           2.9910     0.4810     3.9420 ca         1 2TH      -0.115000
      7 C6           2.5800    -0.7930     3.5950 ca         1 2TH      -0.135000
      8 C7           2.0630    -1.0320     2.3360 ca         1 2TH      -0.097000
      9 C8           2.1430     2.2170     0.6030 c3         1 2TH      -0.045100
     10 C9           1.9650     1.3050    -0.6280 c3         1 2TH       0.103700
     11 N1           3.2480     1.0720    -1.2950 ns         1 2TH      -0.581900
     12 C10          3.6420     1.8800    -2.2990 c          1 2TH       0.705700
     13 O2           2.9320     2.8020    -2.6530 o          1 2TH      -0.589100
     14 C11          4.9270     1.6470    -2.9650 cc         1 2TH      -0.179900
     15 C12          5.4340     2.3840    -3.9900 cd         1 2TH      -0.062000
     16 C13          6.7000     1.8350    -4.3490 cd         1 2TH      -0.175000
     17 C14          6.8890     0.7490    -3.4900 cc         1 2TH       0.036600
     18 S1           8.4660     0.1010    -3.9800 ss         1 2TH      -0.144800
     19 C15          8.8460     1.2520    -5.2870 cc         1 2TH       0.079300
     20 C16          7.7810     2.0680    -5.3000 cd         1 2TH      -0.096000
     21 Cl1         10.2550     1.3040    -6.2990 cl         1 2TH      -0.027400
     22 N2           5.8230     0.6380    -2.6610 na         1 2TH      -0.123100
     23 HO1         -0.3140    -0.6970    -0.5520 ho         1 2TH       0.405000
     24 H1           1.8110    -0.8590    -0.5390 h1         1 2TH       0.037700
     25 H4           3.2040     2.5090     3.3000 ha         1 2TH       0.133000
     26 H5           3.3960     0.6700     4.9280 ha         1 2TH       0.133000
     27 H6           2.6640    -1.6030     4.3090 ha         1 2TH       0.133000
     28 H7           1.7410    -2.0310     2.0660 ha         1 2TH       0.127000
     29 H81          3.0070     2.8580     0.4720 hc         1 2TH       0.071700
     30 H82          1.2500     2.8080     0.7650 hc         1 2TH       0.071700
     31 H9           1.2390     1.7250    -1.3130 h1         1 2TH       0.106700
     32 HN1          3.8300     0.3090    -1.0090 hn         1 2TH       0.307500
     33 H12          4.9590     3.2400    -4.4530 ha         1 2TH       0.175000
     34 H16          7.7250     2.8870    -6.0070 ha         1 2TH       0.156000
     35 HN2          5.7050    -0.0550    -1.9490 hn         1 2TH       0.302700
@<TRIPOS>BOND
     1     1     2 1   
     2     1    23 1   
     3     2     3 1   
     4     2    10 1   
     5     2    24 1   
     6     3     4 ar  
     7     3     8 ar  
     8     4     5 ar  
     9     4     9 1   
    10     5     6 ar  
    11     5    25 1   
    12     6     7 ar  
    13     6    26 1   
    14     7     8 ar  
    15     7    27 1   
    16     8    28 1   
    17     9    10 1   
    18     9    29 1   
    19     9    30 1   
    20    10    11 1   
    21    10    31 1   
    22    11    12 1   
    23    11    32 1   
    24    12    13 2   
    25    12    14 1   
    26    14    15 2   
    27    14    22 1   
    28    15    16 1   
    29    15    33 1   
    30    16    17 2   
    31    16    20 1   
    32    17    18 1   
    33    17    22 1   
    34    18    19 1   
    35    19    20 2   
    36    19    21 1   
    37    20    34 1   
    38    22    35 1   
@<TRIPOS>SUBSTRUCTURE
     1 2TH         1 TEMP              0 ****  ****    0 ROOT
