@<TRIPOS>MOLECULE
molecule
   53    55     1     0     0
SMALL
bcc


@<TRIPOS>ATOM
      1 C11          0.0000     0.0000     0.0000 c3         1 2TJ       0.228100
      2 N3           1.4650     0.0000     0.0000 n7         1 2TJ      -0.919100
      3 S2           2.2930     0.0000     1.4340 sy         1 2TJ       1.428200
      4 O3           3.6730    -0.0340     1.1010 o          1 2TJ      -0.637800
      5 O4           1.7110     1.0200     2.2340 o          1 2TJ      -0.637800
      6 C16          1.9390    -1.5260     2.2400 ca         1 2TJ      -0.341500
      7 C8           2.7410    -2.6290     2.0130 ca         1 2TJ      -0.007500
      8 C9           2.4670    -3.8270     2.6420 ca         1 2TJ      -0.187500
      9 C7           0.8620    -1.6180     3.1040 ca         1 2TJ      -0.007500
     10 C6           0.5820    -2.8120     3.7380 ca         1 2TJ      -0.187500
     11 C5           1.3830    -3.9230     3.5070 ca         1 2TJ       0.154600
     12 N1           1.1020    -5.1340     4.1450 nh         1 2TJ      -0.581000
     13 C2          -0.0800    -5.0110     5.0080 c3         1 2TJ       0.241600
     14 C3          -0.2470    -6.2970     5.8250 c3         1 2TJ       0.250800
     15 C17         -1.2760    -4.7980     4.1770 c1         1 2TJ      -0.206100
     16 C18         -2.2350    -4.6470     3.5170 c1         1 2TJ      -0.087100
     17 C19         -3.1020    -4.2590     2.5180 c3         1 2TJ      -0.035000
     18 C1           0.9390    -6.2190     3.1690 c3         1 2TJ       0.145800
     19 C4           0.8140    -7.5530     3.9110 c3         1 2TJ       0.245800
     20 N2          -0.2690    -7.4390     4.8990 n3         1 2TJ      -0.815500
     21 S1          -1.4800    -8.5660     4.9680 sy         1 2TJ       1.435200
     22 O1          -0.9560    -9.7540     4.3910 o          1 2TJ      -0.636800
     23 O2          -2.0070    -8.5100     6.2870 o          1 2TJ      -0.636800
     24 C10         -2.7650    -8.0170     3.8950 ca         1 2TJ      -0.502800
     25 C12         -2.7730    -8.3950     2.5600 ca         1 2TJ       0.045000
     26 C13         -3.8000    -7.9420     1.7500 ca         1 2TJ      -0.347300
     27 C14         -4.7840    -7.1270     2.3000 ca         1 2TJ       0.743200
     28 N5          -5.8220    -6.6660     1.4990 nv         1 2TJ      -1.002500
     29 N4          -4.7410    -6.7880     3.5800 nb         1 2TJ      -0.780000
     30 C15         -3.7780    -7.2110     4.3750 ca         1 2TJ       0.577200
     31 H1          -0.3610     0.9680     0.3250 h1         1 2TJ       0.040033
     32 H2          -0.3610    -0.2020    -1.0010 h1         1 2TJ       0.040033
     33 H3           1.9650     0.0220    -0.8670 hn         1 2TJ       0.454800
     34 H6           3.5870    -2.5550     1.3390 ha         1 2TJ       0.151000
     35 H7           3.0960    -4.6900     2.4630 ha         1 2TJ       0.147500
     36 H8           0.2380    -0.7510     3.2840 ha         1 2TJ       0.151000
     37 H9          -0.2610    -2.8820     4.4140 ha         1 2TJ       0.147500
     38 H10          0.0520    -4.1730     5.6810 h1         1 2TJ       0.093700
     39 H11          0.5730    -6.3740     6.5290 h1         1 2TJ       0.071700
     40 H12         -1.1820    -6.2460     6.3700 h1         1 2TJ       0.071700
     41 H13         -2.8250    -4.7440     1.5900 hc         1 2TJ       0.061367
     42 H14         -4.1130    -4.5430     2.7850 hc         1 2TJ       0.061367
     43 H15         -3.0510    -3.1840     2.3920 hc         1 2TJ       0.061367
     44 H16          0.1520    -5.9500     2.4750 h1         1 2TJ       0.053700
     45 H17          1.8680    -6.3430     2.6260 h1         1 2TJ       0.053700
     46 H18          1.7610    -7.7800     4.3860 h1         1 2TJ       0.067200
     47 H19          0.5790    -8.3310     3.1950 h1         1 2TJ       0.067200
     48 H20         -1.9860    -9.0310     2.1710 ha         1 2TJ       0.153000
     49 H21         -3.8290    -8.2220     0.7040 ha         1 2TJ       0.140000
     50 H22         -6.5320    -6.0780     1.8890 hn         1 2TJ       0.444300
     51 H23         -5.8620    -6.9250     0.5330 hn         1 2TJ       0.444300
     52 H24         -3.7850    -6.9130     5.4160 h4         1 2TJ       0.042100
     53 H25         -0.3610    -0.7660     0.6760 h1         1 2TJ       0.040033
@<TRIPOS>BOND
     1     1     2 1
     2     2     3 1
     3     3     4 2
     4     3     5 2
     5     3     6 1
     6     6     7 ar
     7     6     9 ar
     8     7     8 ar
     9     8    11 ar
    10     9    10 ar
    11    10    11 ar
    12    11    12 1
    13    12    13 1
    14    12    18 1
    15    13    14 1
    16    13    15 1
    17    14    20 1
    18    15    16 3
    19    16    17 1
    20    18    19 1
    21    19    20 1
    22    20    21 1
    23    21    22 2
    24    21    23 2
    25    21    24 1
    26    24    25 ar
    27    24    30 ar
    28    25    26 ar
    29    26    27 ar
    30    27    28 1
    31    27    29 ar
    32    29    30 ar
    33     1    31 1
    34     1    32 1
    35     2    33 1
    36     7    34 1
    37     8    35 1
    38     9    36 1
    39    10    37 1
    40    13    38 1
    41    14    39 1
    42    14    40 1
    43    17    41 1
    44    17    42 1
    45    17    43 1
    46    18    44 1
    47    18    45 1
    48    19    46 1
    49    19    47 1
    50    25    48 1
    51    26    49 1
    52    28    50 1
    53    28    51 1
    54    30    52 1
    55     1    53 1
@<TRIPOS>SUBSTRUCTURE
     1 2TJ         1 TEMP              0 ****  ****    0 ROOT
