@<TRIPOS>MOLECULE
2TJ
   53    55     1     0     0
SMALL
bcc


@<TRIPOS>ATOM
      1 C11          0.0000     0.0000     0.0000 c3         1 2TJ       0.269100
      2 N3           1.4650     0.0000     0.0000 n7         1 2TJ      -0.584100
      3 S2           2.2930     0.0000     1.4340 sy         1 2TJ       1.045200
      4 O3           3.6730    -0.0340     1.1010 o          1 2TJ      -0.588300
      5 O4           1.7110     1.0200     2.2340 o          1 2TJ      -0.588300
      6 C16          1.9390    -1.5260     2.2400 ca         1 2TJ      -0.188500
      7 C8           2.7410    -2.6290     2.0130 ca         1 2TJ       0.031000
      8 C9           2.4670    -3.8270     2.6420 ca         1 2TJ      -0.183000
      9 C7           0.8620    -1.6180     3.1040 ca         1 2TJ       0.031000
     10 C6           0.5820    -2.8120     3.7380 ca         1 2TJ      -0.183000
     11 C5           1.3830    -3.9230     3.5070 ca         1 2TJ       0.073600
     12 N1           1.1020    -5.1340     4.1450 nh         1 2TJ      -0.351000
     13 C2          -0.0800    -5.0110     5.0080 c3         1 2TJ       0.221600
     14 C3          -0.2470    -6.2970     5.8250 c3         1 2TJ       0.243800
     15 C17         -1.2760    -4.7980     4.1770 c1         1 2TJ      -0.214100
     16 C18         -2.2350    -4.6470     3.5170 c1         1 2TJ      -0.099100
     17 C19         -3.1020    -4.2590     2.5180 c3         1 2TJ       0.092000
     18 C1           0.9390    -6.2190     3.1690 c3         1 2TJ       0.112800
     19 C4           0.8140    -7.5530     3.9110 c3         1 2TJ       0.246800
     20 N2          -0.2690    -7.4390     4.8990 n3         1 2TJ      -0.528500
     21 S1          -1.4800    -8.5660     4.9680 sy         1 2TJ       1.065200
     22 O1          -0.9560    -9.7540     4.3910 o          1 2TJ      -0.586300
     23 O2          -2.0070    -8.5100     6.2870 o          1 2TJ      -0.586300
     24 C10         -2.7650    -8.0170     3.8950 ca         1 2TJ      -0.352800
     25 C12         -2.7730    -8.3950     2.5600 ca         1 2TJ       0.088000
     26 C13         -3.8000    -7.9420     1.7500 ca         1 2TJ      -0.340300
     27 C14         -4.7840    -7.1270     2.3000 ca         1 2TJ       0.546200
     28 N5          -5.8220    -6.6660     1.4990 nv         1 2TJ      -0.513500
     29 N4          -4.7410    -6.7880     3.5800 nb         1 2TJ      -0.684000
     30 C15         -3.7780    -7.2110     4.3750 ca         1 2TJ       0.570200
     31 H1          -0.3610     0.9680     0.3250 h1         1 2TJ      -0.001967
     32 H2          -0.3610    -0.2020    -1.0010 h1         1 2TJ      -0.001967
     33 H3           1.9650     0.0220    -0.8670 hn         1 2TJ       0.346800
     34 H6           3.5870    -2.5550     1.3390 ha         1 2TJ       0.121000
     35 H7           3.0960    -4.6900     2.4630 ha         1 2TJ       0.130000
     36 H8           0.2380    -0.7510     3.2840 ha         1 2TJ       0.121000
     37 H9          -0.2610    -2.8820     4.4140 ha         1 2TJ       0.130000
     38 H10          0.0520    -4.1730     5.6810 h1         1 2TJ       0.057700
     39 H11          0.5730    -6.3740     6.5290 h1         1 2TJ       0.035200
     40 H12         -1.1820    -6.2460     6.3700 h1         1 2TJ       0.035200
     41 H13         -2.8250    -4.7440     1.5900 hc         1 2TJ       0.021700
     42 H14         -4.1130    -4.5430     2.7850 hc         1 2TJ       0.021700
     43 H15         -3.0510    -3.1840     2.3920 hc         1 2TJ       0.021700
     44 H16          0.1520    -5.9500     2.4750 h1         1 2TJ       0.026700
     45 H17          1.8680    -6.3430     2.6260 h1         1 2TJ       0.026700
     46 H18          1.7610    -7.7800     4.3860 h1         1 2TJ       0.030200
     47 H19          0.5790    -8.3310     3.1950 h1         1 2TJ       0.030200
     48 H20         -1.9860    -9.0310     2.1710 ha         1 2TJ       0.121000
     49 H21         -3.8290    -8.2220     0.7040 ha         1 2TJ       0.122000
     50 H22         -6.5320    -6.0780     1.8890 hn         1 2TJ       0.273800
     51 H23         -5.8620    -6.9250     0.5330 hn         1 2TJ       0.273800
     52 H24         -3.7850    -6.9130     5.4160 h4         1 2TJ      -0.002900
     53 H25         -0.3610    -0.7660     0.6760 h1         1 2TJ      -0.001967
@<TRIPOS>BOND
     1     1     2 1   
     2     1    31 1   
     3     1    32 1   
     4     1    53 1   
     5     2     3 1   
     6     2    33 1   
     7     3     4 2   
     8     3     5 2   
     9     3     6 1   
    10     6     7 ar  
    11     6     9 ar  
    12     7     8 ar  
    13     7    34 1   
    14     8    11 ar  
    15     8    35 1   
    16     9    10 ar  
    17     9    36 1   
    18    10    11 ar  
    19    10    37 1   
    20    11    12 1   
    21    12    13 1   
    22    12    18 1   
    23    13    14 1   
    24    13    15 1   
    25    13    38 1   
    26    14    20 1   
    27    14    39 1   
    28    14    40 1   
    29    15    16 3   
    30    16    17 1   
    31    17    41 1   
    32    17    42 1   
    33    17    43 1   
    34    18    19 1   
    35    18    44 1   
    36    18    45 1   
    37    19    20 1   
    38    19    46 1   
    39    19    47 1   
    40    20    21 1   
    41    21    22 2   
    42    21    23 2   
    43    21    24 1   
    44    24    25 ar  
    45    24    30 ar  
    46    25    26 ar  
    47    25    48 1   
    48    26    27 ar  
    49    26    49 1   
    50    27    28 1   
    51    27    29 ar  
    52    28    50 1   
    53    28    51 1   
    54    29    30 ar  
    55    30    52 1   
@<TRIPOS>SUBSTRUCTURE
     1 2TJ         1 TEMP              0 ****  ****    0 ROOT
