@<TRIPOS>MOLECULE
molecule
   42    43     1     0     0
SMALL
bcc


@<TRIPOS>ATOM
      1 C01          0.0000     0.0000     0.0000 ca         1 2TK      -0.134000
      2 C02          1.3830     0.0000     0.0000 ca         1 2TK      -0.114000
      3 C03          2.0750     0.0000     1.2000 ca         1 2TK       0.073100
      4 C04          1.3780    -0.0000     2.4040 ca         1 2TK       0.105100
      5 C05         -0.0080     0.0010     2.3970 ca         1 2TK      -0.169000
      6 C06         -0.6940     0.0000     1.1960 ca         1 2TK      -0.060300
      7 C07         -2.2000     0.0020     1.1910 c3         1 2TK      -0.038100
      8 C08         -2.7120    -1.4410     1.1890 c3         1 2TK      -0.078400
      9 C09         -4.2420    -1.4400     1.1830 c3         1 2TK      -0.083400
     10 C10         -4.7530    -2.8820     1.1810 c3         1 2TK      -0.081400
     11 C11         -6.2830    -2.8810     1.1760 c3         1 2TK      -0.084400
     12 C12         -6.7930    -4.3230     1.1740 c3         1 2TK      -0.092100
     13 O13          2.0520    -0.0010     3.5830 oh         1 2TK      -0.505100
     14 O14          3.4350    -0.0010     1.2010 os         1 2TK      -0.228200
     15 C15          4.0720    -1.1860     1.3910 ca         1 2TK       0.169100
     16 C16          5.4540    -1.2200     1.5220 ca         1 2TK      -0.045900
     17 C17          6.0990    -2.4260     1.7160 ca         1 2TK      -0.072000
     18 C18          5.3700    -3.6000     1.7770 ca         1 2TK      -0.164000
     19 C19          3.9940    -3.5690     1.6470 ca         1 2TK      -0.082000
     20 C20          3.3430    -2.3640     1.4590 ca         1 2TK      -0.199000
     21 Br1          6.4530     0.3840     1.4370 br         1 2TK      -0.085100
     22 H1          -0.5410    -0.0000    -0.9390 ha         1 2TK       0.140000
     23 H2           1.9250    -0.0000    -0.9380 ha         1 2TK       0.151000
     24 H3          -0.5550     0.0010     3.3320 ha         1 2TK       0.144000
     25 H4          -2.5580     0.5130     0.3060 hc         1 2TK       0.051200
     26 H5          -2.5640     0.5120     2.0750 hc         1 2TK       0.051200
     27 H6          -2.3480    -1.9510     0.3050 hc         1 2TK       0.046200
     28 H7          -2.3540    -1.9520     2.0740 hc         1 2TK       0.046200
     29 H8          -4.6060    -0.9290     2.0660 hc         1 2TK       0.041700
     30 H9          -4.6000    -0.9290     0.2970 hc         1 2TK       0.041700
     31 H10         -4.3890    -3.3930     0.2980 hc         1 2TK       0.042200
     32 H11         -4.3950    -3.3930     2.0670 hc         1 2TK       0.042200
     33 H12         -6.6470    -2.3700     2.0590 hc         1 2TK       0.040200
     34 H13         -6.6400    -2.3700     0.2900 hc         1 2TK       0.040200
     35 H14         -6.4290    -4.8340     0.2910 hc         1 2TK       0.033367
     36 H15         -7.8770    -4.3220     1.1700 hc         1 2TK       0.033367
     37 H16         -6.4360    -4.8330     2.0600 hc         1 2TK       0.033367
     38 H17          1.8750     0.8000     4.0480 ho         1 2TK       0.426000
     39 H18          7.1770    -2.4530     1.8190 ha         1 2TK       0.146000
     40 H19          5.8770    -4.5450     1.9270 ha         1 2TK       0.135000
     41 H20          3.4240    -4.4890     1.6970 ha         1 2TK       0.134000
     42 H21          2.2650    -2.3410     1.3570 ha         1 2TK       0.148000
@<TRIPOS>BOND
     1    12    11 1
     2    11    10 1
     3    10     9 1
     4     9     8 1
     5     8     7 1
     6    19    18 ar
     7    19    20 ar
     8    18    17 ar
     9     1     2 ar
    10     1     6 ar
    11    20    15 ar
    12     2     3 ar
    13     7     6 1
    14     6     5 ar
    15    17    16 ar
    16    15    16 ar
    17    15    14 1
    18    16    21 1
    19     3    14 1
    20     3     4 ar
    21     5     4 ar
    22     4    13 1
    23     1    22 1
    24     2    23 1
    25     5    24 1
    26     7    25 1
    27     7    26 1
    28     8    27 1
    29     8    28 1
    30     9    29 1
    31     9    30 1
    32    10    31 1
    33    10    32 1
    34    11    33 1
    35    11    34 1
    36    12    35 1
    37    12    36 1
    38    12    37 1
    39    13    38 1
    40    17    39 1
    41    18    40 1
    42    19    41 1
    43    20    42 1
@<TRIPOS>SUBSTRUCTURE
     1 2TK         1 TEMP              0 ****  ****    0 ROOT
