@<TRIPOS>MOLECULE
2TK
   42    43     1     0     0
SMALL
bcc


@<TRIPOS>ATOM
      1 C01        -0.0500   -0.3910    0.1580 ca        1 2TK     -0.159000
      2 C02         1.3410   -0.4140    0.1330 ca        1 2TK     -0.093000
      3 C03         2.0630   -0.1730    1.3080 ca        1 2TK      0.044100
      4 C04         1.3790    0.0860    2.5130 ca        1 2TK      0.130100
      5 C05        -0.0240    0.1090    2.5260 ca        1 2TK     -0.210000
      6 C06        -0.7390   -0.1300    1.3510 ca        1 2TK     -0.032300
      7 C07        -2.2270   -0.0970    1.3580 c3        1 2TK     -0.042100
      8 C08        -2.8200   -1.4880    1.2290 c3        1 2TK     -0.076400
      9 C09        -4.3320   -1.4330    1.2010 c3        1 2TK     -0.080400
     10 C10        -4.9280   -2.8180    1.0760 c3        1 2TK     -0.079400
     11 C11        -6.4410   -2.7660    1.0460 c3        1 2TK     -0.080400
     12 C12        -7.0390   -4.1440    0.9230 c3        1 2TK     -0.093100
     13 O13         2.1340    0.3010    3.6380 oh        1 2TK     -0.475100
     14 O14         3.4470   -0.0320    1.2460 os        1 2TK     -0.221200
     15 C15         4.1940   -1.1930    1.3980 ca        1 2TK      0.155100
     16 C16         5.5830   -1.0810    1.1900 ca        1 2TK     -0.052900
     17 C17         6.3750   -2.2250    1.3480 ca        1 2TK     -0.080000
     18 C18         5.8070   -3.4470    1.7000 ca        1 2TK     -0.164000
     19 C19         4.4310   -3.5450    1.9020 ca        1 2TK     -0.087000
     20 C20         3.6220   -2.4240    1.7530 ca        1 2TK     -0.188000
     21 BR1         6.4280    0.5210    0.7110 br        1 2TK     -0.070100
     22 H1         -0.6170   -0.5760   -0.7660 ha        1 2TK      0.141000
     23 H2          1.8860   -0.6080   -0.8030 ha        1 2TK      0.153000
     24 H3         -0.5550    0.3190    3.4660 ha        1 2TK      0.139000
     25 H4         -2.5850    0.5410    0.5050 hc        1 2TK      0.051700
     26 H5         -2.5990    0.3790    2.3050 hc        1 2TK      0.051700
     27 H6         -2.4410   -1.9700    0.2900 hc        1 2TK      0.045200
     28 H7         -2.4820   -2.1230    2.0890 hc        1 2TK      0.045200
     29 H8         -4.6710   -0.7990    0.3390 hc        1 2TK      0.040200
     30 H9         -4.7090   -0.9440    2.1380 hc        1 2TK      0.040200
     31 H10        -4.5910   -3.4520    1.9380 hc        1 2TK      0.040700
     32 H11        -4.5510   -3.3070    0.1390 hc        1 2TK      0.040700
     33 H12        -6.7770   -2.1310    0.1840 hc        1 2TK      0.038700
     34 H13        -6.8160   -2.2750    1.9830 hc        1 2TK      0.038700
     35 H14        -6.6970   -4.6400   -0.0170 hc        1 2TK      0.033033
     36 H15        -8.1540   -4.0820    0.9030 hc        1 2TK      0.033033
     37 H16        -6.7360   -4.7840    1.7860 hc        1 2TK      0.033033
     38 H17         1.5310    0.5260    4.3630 ho        1 2TK      0.420000
     39 H18         7.4640   -2.1600    1.1930 ha        1 2TK      0.146000
     40 H19         6.4470   -4.3330    1.8180 ha        1 2TK      0.137000
     41 H20         3.9810   -4.5090    2.1820 ha        1 2TK      0.135000
     42 H21         2.5370   -2.4920    1.9190 ha        1 2TK      0.149000
@<TRIPOS>BOND
     1    1    2 ar  
     2    1    6 ar  
     3    1   22 1   
     4    2    3 ar  
     5    2   23 1   
     6    3    4 ar  
     7    3   14 1   
     8    4    5 ar  
     9    4   13 1   
    10    5    6 ar  
    11    5   24 1   
    12    6    7 1   
    13    7    8 1   
    14    7   25 1   
    15    7   26 1   
    16    8    9 1   
    17    8   27 1   
    18    8   28 1   
    19    9   10 1   
    20    9   29 1   
    21    9   30 1   
    22   10   11 1   
    23   10   31 1   
    24   10   32 1   
    25   11   12 1   
    26   11   33 1   
    27   11   34 1   
    28   12   35 1   
    29   12   36 1   
    30   12   37 1   
    31   13   38 1   
    32   14   15 1   
    33   15   16 ar  
    34   15   20 ar  
    35   16   17 ar  
    36   16   21 1   
    37   17   18 ar  
    38   17   39 1   
    39   18   19 ar  
    40   18   40 1   
    41   19   20 ar  
    42   19   41 1   
    43   20   42 1   
@<TRIPOS>SUBSTRUCTURE
     1 2TK         1 TEMP              0 ****  ****    0 ROOT
