@<TRIPOS>MOLECULE
molecule
   44    45     1     0     0
SMALL
bcc


@<TRIPOS>ATOM
      1 O5'          0.0000     0.0000     0.0000 os         1 2TM      -0.594200
      2 C5'          1.4290     0.0000     0.0000 c3         1 2TM       0.230400
      3 C4'          1.9390     0.0000     1.4430 c3         1 2TM       0.119100
      4 O4'          1.5980    -1.2420     2.0820 os         1 2TM      -0.348600
      5 C3'          3.4760     0.1180     1.4560 c3         1 2TM       0.089100
      6 O3'          3.8800     1.2950     2.1580 oh         1 2TM      -0.600800
      7 C2'          3.9470    -1.1500     2.2070 c3         1 2TM       0.084100
      8 O2'          5.0230    -0.8470     3.0980 oh         1 2TM      -0.602800
      9 C1'          2.6720    -1.5550     2.9950 c3         1 2TM       0.314500
     10 C5           2.7730    -4.7260     4.8730 cc         1 2TM      -0.303600
     11 C6           2.7590    -3.4000     4.6000 cd         1 2TM      -0.071400
     12 N1           2.6880    -2.9870     3.3040 n          1 2TM      -0.385000
     13 C2           2.6300    -3.8870     2.3050 c          1 2TM       0.845900
     14 N3           2.6430    -5.1950     2.5570 nc         1 2TM      -0.834100
     15 C4           2.7180    -5.6440     3.8030 cd         1 2TM       0.180500
     16 O3G         -7.8050     0.0920    -1.9700 o          1 2TM      -0.671500
     17 PG          -6.5520     0.3390    -2.9500 p5         1 2TM       1.290900
     18 O1G         -6.6880     1.7890    -3.6390 o          1 2TM      -0.671500
     19 O2G         -6.5320    -0.7050    -3.9980 o          1 2TM      -0.671500
     20 O3B         -5.1960     0.2810    -2.0840 os         1 2TM      -0.715800
     21 PB          -3.6360     0.1490    -2.4570 p5         1 2TM       1.310600
     22 O1B         -3.1980     1.3930    -3.3810 o          1 2TM      -0.655000
     23 O2B         -3.4090    -1.1150    -3.1920 o          1 2TM      -0.655000
     24 PA          -0.8760    -0.0000    -1.3510 p5         1 2TM       1.175600
     25 O1A         -0.6300    -1.3760    -2.1500 o          1 2TM      -0.798500
     26 O2A         -0.4730     1.1430    -2.2000 o          1 2TM      -0.798500
     27 N4           2.7310    -6.9970     4.0520 nz         1 2TM      -0.628600
     28 O2           2.5660    -3.4990     1.1510 o          1 2TM      -0.677500
     29 C1          -2.6440     0.1490    -0.9280 c3         1 2TM      -0.439800
     30 H1           1.7910    -0.8840    -0.5110 h1         1 2TM       0.036200
     31 H2           1.7900     0.8850    -0.5110 h1         1 2TM       0.036200
     32 H3           1.5030     0.8260     1.9930 h1         1 2TM       0.054700
     33 H4           3.8620     0.1220     0.4440 h1         1 2TM       0.047700
     34 H5           4.3000     1.8900     1.5590 ho         1 2TM       0.384000
     35 H6           4.2260    -1.9270     1.5060 h1         1 2TM       0.091700
     36 H7           5.8040    -1.2900     2.8100 ho         1 2TM       0.380000
     37 H8           2.5830    -0.9650     3.8990 h2         1 2TM       0.048700
     38 H9           2.8320    -5.0770     5.8960 ha         1 2TM       0.068000
     39 H10          2.8010    -2.6750     5.4040 h4         1 2TM       0.116000
     40 H15          3.5710    -7.2390     4.5390 hn         1 2TM       0.365800
     41 H16          1.9380    -7.2410     4.6120 hn         1 2TM       0.365800
     42 H17         -2.9380    -0.6880    -0.3070 hc         1 2TM       0.061700
     43 H18         -2.8090     1.0740    -0.3900 hc         1 2TM       0.061700
     44 H43          2.6820    -7.4960     3.1860 hn         1 2TM       0.365800
@<TRIPOS>BOND
     1    27    15 1
     2    14    15 2
     3    14    13 1
     4    28    13 2
     5    15    10 1
     6    13    12 1
     7    10    11 2
     8    12    11 1
     9    12     9 1
    10     8     7 1
    11     7     9 1
    12     7     5 1
    13     9     4 1
    14     5     6 1
    15     5     3 1
    16     4     3 1
    17     3     2 1
    18     2     1 1
    19     1    24 1
    20    25    24 1
    21    24    26 1
    22    24    29 1
    23    23    21 1
    24    29    21 1
    25    21    20 1
    26    21    22 1
    27    20    17 1
    28    17    18 1
    29    17    19 1
    30    17    16 1
    31     2    30 1
    32     2    31 1
    33     3    32 1
    34     5    33 1
    35     6    34 1
    36     7    35 1
    37     8    36 1
    38     9    37 1
    39    10    38 1
    40    11    39 1
    41    27    40 1
    42    27    41 1
    43    29    42 1
    44    29    43 1
    45    44    27 1
@<TRIPOS>SUBSTRUCTURE
     1 2TM         1 TEMP              0 ****  ****    0 ROOT
