@<TRIPOS>MOLECULE
2TN
   42    42     1     0     0
SMALL
bcc


@<TRIPOS>ATOM
      1 O1           0.0000     0.0000     0.0000 o          1 2TN      -0.361100
      2 C11          1.2280     0.0000     0.0000 c          1 2TN       0.306100
      3 N2           1.9910     0.0000     1.1490 nz         1 2TN       0.176600
      4 C10          2.0710    -0.0030    -1.2640 c3         1 2TN      -0.008100
      5 C7           1.2710     0.0680    -2.5220 ca         1 2TN      -0.201300
      6 C8           0.8440    -1.1060    -3.1420 ca         1 2TN      -0.033500
      7 C9           0.0960    -1.0400    -4.3190 ca         1 2TN      -0.148500
      8 C4          -0.2190     0.2000    -4.8660 ca         1 2TN       0.195100
      9 C5           0.2040     1.3730    -4.2520 ca         1 2TN      -0.148500
     10 C6           0.9520     1.3070    -3.0760 ca         1 2TN      -0.033500
     11 O2          -0.9520     0.2640    -6.0220 os         1 2TN      -0.282900
     12 C1          -1.8790    -0.7920    -6.2510 c3         1 2TN       0.193400
     13 C2          -3.0600    -0.2470    -7.0500 c3         1 2TN       0.188100
     14 O3          -2.5750     0.2430    -8.3000 oh         1 2TN      -0.571800
     15 C3          -3.8190     0.8640    -6.3230 c3         1 2TN       0.108800
     16 N1          -4.3520     0.3970    -5.0640 n7         1 2TN      -0.588200
     17 C12         -5.0960     1.4500    -4.3780 c3         1 2TN       0.121500
     18 C14         -4.1730     2.6350    -4.1330 c3         1 2TN       0.001900
     19 C13         -5.6540     0.8930    -3.0760 c3         1 2TN       0.001900
     20 HN21         1.3890    -0.0300     1.9480 hn         1 2TN       0.245800
     21 HN22         2.5460     0.8320     1.1800 hn         1 2TN       0.245800
     22 H101         2.7420     0.8470    -1.2340 hc         1 2TN       0.048200
     23 H102         2.6620    -0.9110    -1.2830 hc         1 2TN       0.048200
     24 H8           1.0920    -2.0680    -2.7120 ha         1 2TN       0.098500
     25 H9          -0.2370    -1.9500    -4.8030 ha         1 2TN       0.132500
     26 H5          -0.0450     2.3350    -4.6850 ha         1 2TN       0.132500
     27 H6           1.2840     2.2180    -2.5930 ha         1 2TN       0.098500
     28 H11         -1.3970    -1.5840    -6.8110 h1         1 2TN       0.014700
     29 H12A        -2.2310    -1.1790    -5.3020 h1         1 2TN       0.014700
     30 H2          -3.7470    -1.0620    -7.2440 h1         1 2TN       0.001700
     31 HO3         -3.0240    -0.1940    -9.0050 ho         1 2TN       0.393000
     32 H31         -4.6350     1.2040    -6.9490 h1         1 2TN       0.027700
     33 H32         -3.1450     1.6910    -6.1380 h1         1 2TN       0.027700
     34 HN1         -4.9540    -0.3860    -5.2260 hn         1 2TN       0.251800
     35 H12         -5.9190     1.7680    -5.0070 h1         1 2TN       0.007700
     36 H141        -3.2530     2.2880    -3.6770 hc         1 2TN       0.008367
     37 H142        -3.9480     3.1190    -5.0760 hc         1 2TN       0.008367
     38 H143        -4.6600     3.3410    -3.4710 hc         1 2TN       0.008367
     39 H131        -4.8400     0.5300    -2.4600 hc         1 2TN       0.008367
     40 H132        -6.1860     1.6740    -2.5470 hc         1 2TN       0.008367
     41 H133        -6.3330     0.0770    -3.2940 hc         1 2TN       0.008367
     42 H23          2.6020    -0.7930     1.1430 hn         1 2TN       0.245800
@<TRIPOS>BOND
     1     1     2 2   
     2     2     3 1   
     3     2     4 1   
     4     3    20 1   
     5     3    21 1   
     6     3    42 1   
     7     4     5 1   
     8     4    22 1   
     9     4    23 1   
    10     5     6 ar  
    11     5    10 ar  
    12     6     7 ar  
    13     6    24 1   
    14     7     8 ar  
    15     7    25 1   
    16     8     9 ar  
    17     8    11 1   
    18     9    10 ar  
    19     9    26 1   
    20    10    27 1   
    21    11    12 1   
    22    12    13 1   
    23    12    28 1   
    24    12    29 1   
    25    13    14 1   
    26    13    15 1   
    27    13    30 1   
    28    14    31 1   
    29    15    16 1   
    30    15    32 1   
    31    15    33 1   
    32    16    17 1   
    33    16    34 1   
    34    17    18 1   
    35    17    19 1   
    36    17    35 1   
    37    18    36 1   
    38    18    37 1   
    39    18    38 1   
    40    19    39 1   
    41    19    40 1   
    42    19    41 1   
@<TRIPOS>SUBSTRUCTURE
     1 2TN         1 TEMP              0 ****  ****    0 ROOT
