@<TRIPOS>MOLECULE
molecule
   58    61     1     0     0
SMALL
bcc


@<TRIPOS>ATOM
      1 C17          0.0000     0.0000     0.0000 ca         1 2TO       0.034000
      2 C18          1.3830     0.0000     0.0000 ca         1 2TO      -0.325300
      3 C19          2.0610     0.0000     1.2160 ca         1 2TO       0.742200
      4 N6           3.4510     0.0000     1.2300 nv         1 2TO      -1.022500
      5 N5           1.3930    -0.0000     2.3590 nb         1 2TO      -0.762000
      6 C20          0.0730    -0.0000     2.3890 ca         1 2TO       0.558200
      7 C16         -0.6620    -0.0010     1.2210 ca         1 2TO      -0.494800
      8 S1          -2.4230     0.0060     1.2780 sy         1 2TO       1.433200
      9 O2          -2.7810     0.5480     2.5410 o          1 2TO      -0.637300
     10 O3          -2.8630     0.5550     0.0440 o          1 2TO      -0.637300
     11 N3          -2.9180    -1.5750     1.2900 n3         1 2TO      -0.821500
     12 C10         -3.1800    -2.2930     0.0330 c3         1 2TO       0.240800
     13 C11         -2.4020    -3.6130     0.0560 c3         1 2TO       0.150800
     14 C9          -3.1040    -2.2980     2.5570 c3         1 2TO       0.240800
     15 C8          -2.3350    -3.6210     2.4780 c3         1 2TO       0.150800
     16 N2          -2.7400    -4.3550     1.2780 nh         1 2TO      -0.714300
     17 C6          -2.1830    -5.6260     1.2590 ca         1 2TO       0.630200
     18 N1          -0.8780    -5.7690     1.0970 nb         1 2TO      -0.719000
     19 C3          -0.3060    -6.9580     1.0780 ca         1 2TO       0.455200
     20 C1          -1.0520    -8.1110     1.2260 ca         1 2TO      -0.256600
     21 C4          -0.3790    -9.4600     1.2020 c3         1 2TO       0.125100
     22 C21          0.4240    -9.6060    -0.0920 c3         1 2TO       0.596400
     23 F2           0.9410   -10.9020    -0.1770 f          1 2TO      -0.206800
     24 F3          -0.4110    -9.3640    -1.1890 f          1 2TO      -0.206800
     25 F1           1.4750    -8.6820    -0.0950 f          1 2TO      -0.206800
     26 C22          0.5610    -9.5830     2.4020 c3         1 2TO       0.596400
     27 F5           1.1860   -10.8340     2.3790 f          1 2TO      -0.206800
     28 F6           1.5320    -8.5760     2.3400 f          1 2TO      -0.206800
     29 F4          -0.1720    -9.4490     3.5850 f          1 2TO      -0.206800
     30 O1          -1.3700   -10.4870     1.2660 oh         1 2TO      -0.552800
     31 C2          -2.4240    -8.0180     1.3990 ca         1 2TO      -0.023000
     32 C5          -3.0050    -6.7510     1.4170 cp         1 2TO      -0.137300
     33 C7          -4.4690    -6.5940     1.6040 cp         1 2TO      -0.154300
     34 C15         -5.3670    -7.2340     0.7460 ca         1 2TO      -0.082000
     35 C14         -6.7230    -7.0560     0.9640 ca         1 2TO      -0.255300
     36 C13         -7.1400    -6.2600     2.0140 ca         1 2TO       0.425200
     37 N4          -6.2690    -5.6690     2.8080 nb         1 2TO      -0.690000
     38 C12         -4.9690    -5.8130     2.6440 ca         1 2TO       0.453200
     39 H1          -0.5540    -0.0000    -0.9310 ha         1 2TO       0.153000
     40 H2           1.9320     0.0010    -0.9340 ha         1 2TO       0.143000
     41 H3           3.9580     0.5150     0.5380 hn         1 2TO       0.443800
     42 H4           3.9440    -0.4930     1.9480 hn         1 2TO       0.443800
     43 H5          -0.4390    -0.0010     3.3430 h4         1 2TO       0.040100
     44 H6          -4.2400    -2.4980    -0.0540 h1         1 2TO       0.067950
     45 H7          -2.8490    -1.6910    -0.8040 h1         1 2TO       0.067950
     46 H8          -2.6710    -4.2050    -0.8110 h1         1 2TO       0.053450
     47 H9          -1.3390    -3.4050     0.0430 h1         1 2TO       0.053450
     48 H10         -4.1580    -2.5000     2.7090 h1         1 2TO       0.067950
     49 H11         -2.7190    -1.7030     3.3750 h1         1 2TO       0.067950
     50 H12         -1.2720    -3.4160     2.4310 h1         1 2TO       0.053450
     51 H13         -2.5540    -4.2170     3.3550 h1         1 2TO       0.053450
     52 H14          0.7670    -7.0310     0.9430 h4         1 2TO       0.049100
     53 H15         -0.9990   -11.3010     0.9660 ho         1 2TO       0.434000
     54 H16         -3.0300    -8.9080     1.5180 ha         1 2TO       0.170000
     55 H17         -5.0120    -7.8520    -0.0700 ha         1 2TO       0.140000
     56 H18         -7.4480    -7.5360     0.3180 ha         1 2TO       0.140000
     57 H19         -8.2000    -6.1170     2.1860 h4         1 2TO       0.024100
     58 H20         -4.2840    -5.3110     3.3170 h4         1 2TO       0.027100
@<TRIPOS>BOND
     1    25    22 1   
     2    23    22 1   
     3    28    26 1   
     4    29    26 1   
     5    22    24 1   
     6    22    21 1   
     7    26    21 1   
     8    26    27 1   
     9    21    30 1   
    10    21    20 1   
    11    19    20 ar  
    12    19    18 ar  
    13    20    31 ar  
    14    18    17 ar  
    15    31    32 ar  
    16    17    32 ar  
    17    17    16 1   
    18    13    16 1   
    19    13    12 1   
    20    32    33 1   
    21    16    15 1   
    22    12    11 1   
    23    33    34 ar  
    24    33    38 ar  
    25     2     1 ar  
    26     2     3 ar  
    27     1     7 ar  
    28    34    35 ar  
    29    38    37 ar  
    30    15    14 1   
    31    11    14 1   
    32    11     8 1   
    33     4     3 1   
    34     3     5 ar  
    35     9     8 2   
    36     7     8 1   
    37     7     6 ar  
    38    37    36 ar  
    39     8    10 2   
    40    35    36 ar  
    41     5     6 ar  
    42     1    39 1   
    43     2    40 1   
    44     4    41 1   
    45     4    42 1   
    46     6    43 1   
    47    12    44 1   
    48    12    45 1   
    49    13    46 1   
    50    13    47 1   
    51    14    48 1   
    52    14    49 1   
    53    15    50 1   
    54    15    51 1   
    55    19    52 1   
    56    30    53 1   
    57    31    54 1   
    58    34    55 1   
    59    35    56 1   
    60    36    57 1   
    61    38    58 1   
@<TRIPOS>SUBSTRUCTURE
     1 2TO         1 TEMP              0 ****  ****    0 ROOT
