@<TRIPOS>MOLECULE
molecule
   43    44     1     0     0
SMALL
bcc


@<TRIPOS>ATOM
      1 N1'          0.0000     0.0000     0.0000 nb         1 2TP      -0.599000
      2 C2'          1.3470     0.0000     0.0000 ca         1 2TP       0.668300
      3 C2A          2.0120    -0.0030    -1.3340 c3         1 2TP      -0.134400
      4 N3'          2.1570     0.0000     1.0760 nb         1 2TP      -0.756000
      5 C4'          1.5210     0.0020     2.2660 ca         1 2TP       0.729200
      6 N4'          2.3110     0.0020     3.4420 nu         1 2TP      -0.760400
      7 C5'          0.1560     0.0020     2.3860 ca         1 2TP      -0.464900
      8 C6'         -0.5690     0.0010     1.2230 ca         1 2TP       0.506200
      9 C35         -0.5480     0.0030     3.7150 c3         1 2TP       0.104600
     10 N3          -1.9770     0.0020     3.5080 na         1 2TP       0.003900
     11 C2          -2.6540    -1.1210     3.4100 cc         1 2TP      -0.217400
     12 S1          -4.3210    -0.8190     3.1690 ss         1 2TP       0.120200
     13 C5          -4.0440     0.8660     3.2090 cc         1 2TP      -0.054400
     14 C4          -2.7300     1.1500     3.3990 cd         1 2TP      -0.025600
     15 C4A         -2.0430     2.4460     3.4980 c3         1 2TP      -0.029800
     16 C5A         -5.2030     1.8060     3.0400 c3         1 2TP      -0.010100
     17 C5B         -5.4580     2.1760     1.5820 c3         1 2TP       0.217400
     18 O5G         -4.2970     2.7720     1.0290 os         1 2TP      -0.594200
     19 P1          -4.2950     3.2610    -0.5140 p5         1 2TP       1.372800
     20 O11         -4.7380     1.9300    -1.3160 os         1 2TP      -0.675800
     21 O12         -5.5850     4.2300    -0.6410 o          1 2TP      -0.834500
     22 O13         -3.0090     3.8770    -0.9850 o          1 2TP      -0.834500
     23 P2          -3.9940     0.5070    -1.5040 p5         1 2TP       1.243900
     24 O21         -2.6860     0.8890    -2.3730 o          1 2TP      -0.793833
     25 O22         -3.7200    -0.2290    -0.2250 o          1 2TP      -0.793833
     26 O23         -4.9370    -0.2710    -2.5600 o          1 2TP      -0.793833
     27 O4'          3.6780    -0.0240     3.4040 oh         1 2TP      -0.319300
     28 H2A1         2.9080    -0.6100    -1.2900 hc         1 2TP       0.060700
     29 H2A2         2.2770     1.0110    -1.6080 hc         1 2TP       0.060700
     30 H2A3         1.3350    -0.4120    -2.0750 hc         1 2TP       0.060700
     31 H4'          1.8530     0.0220     4.3320 hn         1 2TP       0.432800
     32 H6'         -1.6510     0.0010     1.2890 h4         1 2TP       0.097100
     33 H351        -0.2650    -0.8810     4.2740 h1         1 2TP       0.048700
     34 H352        -0.2650     0.8870     4.2720 h1         1 2TP       0.048700
     35 H2          -2.2140    -2.1090     3.4740 h5         1 2TP       0.186000
     36 H4A1        -1.3690     2.5630     2.6580 hc         1 2TP       0.062367
     37 H4A2        -2.7750     3.2450     3.4870 hc         1 2TP       0.062367
     38 H4A3        -1.4790     2.4860     4.4220 hc         1 2TP       0.062367
     39 H5A1        -5.0010     2.7120     3.5990 hc         1 2TP       0.032700
     40 H5A2        -6.0930     1.3380     3.4420 hc         1 2TP       0.032700
     41 H5B1        -6.2830     2.8760     1.5270 h1         1 2TP       0.048700
     42 H5B2        -5.7060     1.2830     1.0220 h1         1 2TP       0.048700
     43 H4           4.0180     0.0160     4.2820 ho         1 2TP       0.381000
@<TRIPOS>BOND
     1     1     2 ar
     2     1     8 ar
     3     2     3 1
     4     2     4 ar
     5     3    28 1
     6     3    29 1
     7     3    30 1
     8     4     5 ar
     9     5     6 1
    10     5     7 ar
    11     6    27 1
    12     6    31 1
    13     7     8 ar
    14     7     9 1
    15     8    32 1
    16     9    10 1
    17     9    33 1
    18     9    34 1
    19    10    11 2
    20    10    14 1
    21    11    12 1
    22    11    35 1
    23    12    13 1
    24    13    14 2
    25    13    16 1
    26    14    15 1
    27    15    36 1
    28    15    37 1
    29    15    38 1
    30    16    17 1
    31    16    39 1
    32    16    40 1
    33    17    18 1
    34    17    41 1
    35    17    42 1
    36    18    19 1
    37    19    20 1
    38    19    21 1
    39    19    22 1
    40    20    23 1
    41    23    24 1
    42    23    25 1
    43    23    26 1
    44    27    43 1
@<TRIPOS>SUBSTRUCTURE
     1 2TP         1 TEMP              0 ****  ****    0 ROOT
