@<TRIPOS>MOLECULE
molecule
   19    20     1     0     0
SMALL
bcc


@<TRIPOS>ATOM
      1 OXT          0.0000     0.0000     0.0000 o          1 2TQ      -0.828300
      2 C            1.3430     0.0000     0.0000 c          1 2TQ       0.898600
      3 O            1.9460     0.0000     1.0460 o          1 2TQ      -0.828300
      4 CA           2.0960     0.0020    -1.3050 c3         1 2TQ      -0.038300
      5 CB           1.7920    -1.2900    -2.1030 c3         1 2TQ      -0.069400
      6 CG           3.0600    -1.4150    -2.9900 c3         1 2TQ      -0.117400
      7 CD           4.1780    -0.9100    -2.0560 cy         1 2TQ      -0.004300
      8 N            3.5500    -0.0320    -1.0570 nj         1 2TQ      -0.322800
      9 CAH          4.3020     1.0020    -1.4860 c          1 2TQ       0.670500
     10 OAB          4.4020     2.1460    -1.0940 o          1 2TQ      -0.585500
     11 CAF          4.9770     0.2650    -2.6120 cy         1 2TQ      -0.240400
     12 H2           1.8370     0.8740    -1.8930 h1         1 2TQ       0.043700
     13 H3           1.7010    -2.1410    -1.4390 hc         1 2TQ       0.059200
     14 H4           0.9050    -1.1670    -2.7130 hc         1 2TQ       0.059200
     15 H5           3.2320    -2.4710    -3.1530 hc         1 2TQ       0.048200
     16 H6           2.9620    -0.6910    -3.7900 hc         1 2TQ       0.048200
     17 H7           4.7890    -1.6900    -1.6180 h1         1 2TQ       0.074700
     18 H8           6.0470     0.1620    -2.4820 hc         1 2TQ       0.067200
     19 H9           4.6510     0.5840    -3.5950 hc         1 2TQ       0.067200
@<TRIPOS>BOND
     1    11     9 1
     2    11     7 1
     3     9    10 2
     4     9     8 1
     5     6     7 1
     6     6     5 1
     7     7     8 1
     8     8     4 1
     9     5     4 1
    10     4     2 1
    11     3     2 1
    12     2     1 1
    13     4    12 1
    14     5    13 1
    15     5    14 1
    16     6    15 1
    17     6    16 1
    18     7    17 1
    19    11    18 1
    20    11    19 1
@<TRIPOS>SUBSTRUCTURE
     1 2TQ         1 TEMP              0 ****  ****    0 ROOT
