@<TRIPOS>MOLECULE
2TT
   36    38     1     0     0
SMALL
bcc


@<TRIPOS>ATOM
      1 C7           0.0000     0.0000     0.0000 ca         1 2TT      -0.164600
      2 C2           1.3970     0.0000     0.0000 ca         1 2TT       0.011400
      3 C4           1.3910     0.0000     2.3960 ca         1 2TT      -0.062000
      4 C6          -0.6910     0.0010     1.2140 ca         1 2TT      -0.073000
      5 Cl1          2.2670     0.0000    -1.5020 cl         1 2TT       0.044600
      6 C3           2.0840     0.0000     1.1990 ca         1 2TT      -0.113000
      7 C5           0.0070     0.0010     2.4020 ca         1 2TT      -0.112000
      8 C8          -0.7430     0.0060    -1.2770 c          1 2TT       0.587700
      9 O9          -0.1380     0.0120    -2.3310 o          1 2TT      -0.622100
     10 N10         -2.0900     0.0070    -1.2730 ns         1 2TT      -0.035100
     11 C11         -2.7910     0.1120    -2.4740 ca         1 2TT      -0.032400
     12 C12         -2.3050    -0.4820    -3.6410 ca         1 2TT      -0.258300
     13 C13         -3.0280    -0.3620    -4.8080 ca         1 2TT       0.449200
     14 N14         -4.1670     0.3030    -4.8360 nb         1 2TT      -0.569000
     15 C15         -4.6650     0.8800    -3.7520 ca         1 2TT       0.380200
     16 N16         -5.8730     1.5710    -3.8320 ns         1 2TT      -0.113400
     17 C17         -6.5800     1.5630    -4.9800 c          1 2TT       0.584100
     18 O18         -6.1210     1.0330    -5.9710 o          1 2TT      -0.569100
     19 C19         -7.9380     2.2120    -5.0340 cx         1 2TT      -0.221700
     20 C20         -8.6900     2.1710    -6.3660 cx         1 2TT      -0.049900
     21 C21         -9.1530     1.2970    -5.1980 cx         1 2TT      -0.049900
     22 C22         -3.9960     0.8050    -2.5390 ca         1 2TT      -0.308300
     23 H1           1.9350     0.0000     3.3330 ha         1 2TT       0.106000
     24 H2          -1.7750     0.0010     1.2210 ha         1 2TT       0.101000
     25 H3           3.1670    -0.0000     1.2010 ha         1 2TT       0.119000
     26 H4          -0.5280     0.0010     3.3440 ha         1 2TT       0.108000
     27 H5          -2.5880    -0.1070    -0.4120 hn         1 2TT       0.173500
     28 H6          -1.3700    -1.0300    -3.6280 ha         1 2TT       0.155000
     29 H7          -2.6550    -0.8200    -5.7160 h4         1 2TT      -0.015900
     30 H8          -6.2380     2.0350    -3.0230 hn         1 2TT       0.167500
     31 H9          -8.1170     3.1000    -4.4400 hc         1 2TT       0.060700
     32 H10         -8.1870     1.6480    -7.1700 hc         1 2TT       0.051950
     33 H11         -9.3100     3.0330    -6.5790 hc         1 2TT       0.051950
     34 H12        -10.0560     1.6250    -4.6980 hc         1 2TT       0.051950
     35 H13         -8.9330     0.2400    -5.2890 hc         1 2TT       0.051950
     36 H14         -4.4060     1.2780    -1.6550 ha         1 2TT       0.115000
@<TRIPOS>BOND
     1     1     2 ar  
     2     1     4 ar  
     3     1     8 1   
     4     2     5 1   
     5     2     6 ar  
     6     3     6 ar  
     7     3     7 ar  
     8     3    23 1   
     9     4     7 ar  
    10     4    24 1   
    11     6    25 1   
    12     7    26 1   
    13     8     9 2   
    14     8    10 1   
    15    10    11 1   
    16    10    27 1   
    17    11    12 ar  
    18    11    22 ar  
    19    12    13 ar  
    20    12    28 1   
    21    13    14 ar  
    22    13    29 1   
    23    14    15 ar  
    24    15    16 1   
    25    15    22 ar  
    26    16    17 1   
    27    16    30 1   
    28    17    18 2   
    29    17    19 1   
    30    19    20 1   
    31    19    21 1   
    32    19    31 1   
    33    20    21 1   
    34    20    32 1   
    35    20    33 1   
    36    21    34 1   
    37    21    35 1   
    38    22    36 1   
@<TRIPOS>SUBSTRUCTURE
     1 2TT         1 TEMP              0 ****  ****    0 ROOT
