@<TRIPOS>MOLECULE
2TU
   29    30     1     0     0
SMALL
bcc


@<TRIPOS>ATOM
      1 N1           0.0000     0.0000     0.0000 n          1 2TU       0.201000
      2 C2           1.3460     0.0000     0.0000 cs         1 2TU       0.232400
      3 S2           2.1900     0.0010    -1.4890 s          1 2TU      -0.628400
      4 N3           2.0370     0.0000     1.1540 ns         1 2TU       0.004500
      5 C4           1.3880    -0.0010     2.3360 c          1 2TU       0.578700
      6 O4           2.0120    -0.0010     3.3810 o          1 2TU      -0.636500
      7 C5          -0.0280    -0.0010     2.3510 cc         1 2TU      -0.260200
      8 C6          -0.6970    -0.0000     1.1770 cd         1 2TU      -0.124400
      9 C1'         -0.7250     0.0060    -1.2730 c3         1 2TU       0.140500
     10 C2'         -1.5290    -1.3070    -1.4490 c3         1 2TU       0.130100
     11 O2'         -0.7150    -2.3270    -2.0330 oh         1 2TU      -0.528800
     12 C3'         -2.6510    -0.8720    -2.4240 c3         1 2TU       0.136100
     13 O3'         -2.3150    -1.2300    -3.7660 oh         1 2TU      -0.541800
     14 C4'         -2.7100     0.6600    -2.2730 c3         1 2TU       0.155100
     15 O4'         -1.7460     1.0280    -1.2700 os         1 2TU      -0.386600
     16 C5'         -4.1110     1.0860    -1.8280 c3         1 2TU       0.220400
     17 O5'         -4.1900     2.5120    -1.8030 oh         1 2TU      -0.575800
     18 HN3          3.0380     0.0000     1.1360 hn         1 2TU       0.218500
     19 H5          -0.5670    -0.0020     3.2900 ha         1 2TU       0.152000
     20 H6          -1.7800    -0.0000     1.1690 h4         1 2TU       0.146000
     21 H1'         -0.0470     0.1510    -2.1050 h2         1 2TU       0.140700
     22 H2'         -1.9470    -1.6310    -0.5040 h1         1 2TU       0.011700
     23 HO2'        -0.9000    -3.1530    -1.6180 ho         1 2TU       0.386000
     24 H3'         -3.5950    -1.3160    -2.1320 h1         1 2TU       0.009700
     25 HO3'        -3.0000    -1.7660    -4.1290 ho         1 2TU       0.390000
     26 H4'         -2.4570     1.1320    -3.2150 h1         1 2TU       0.059700
     27 H5'         -4.3090     0.6960    -0.8360 h1         1 2TU      -0.010800
     28 H5'A        -4.8440     0.6950    -2.5220 h1         1 2TU      -0.010800
     29 HO5'        -5.0670     2.7740    -1.5760 ho         1 2TU       0.392000
@<TRIPOS>BOND
     1     1     2 1   
     2     1     8 1   
     3     1     9 1   
     4     2     3 2   
     5     2     4 1   
     6     4     5 1   
     7     4    18 1   
     8     5     6 2   
     9     5     7 1   
    10     7     8 2   
    11     7    19 1   
    12     8    20 1   
    13     9    10 1   
    14     9    15 1   
    15     9    21 1   
    16    10    11 1   
    17    10    12 1   
    18    10    22 1   
    19    11    23 1   
    20    12    13 1   
    21    12    14 1   
    22    12    24 1   
    23    13    25 1   
    24    14    15 1   
    25    14    16 1   
    26    14    26 1   
    27    16    17 1   
    28    16    27 1   
    29    16    28 1   
    30    17    29 1   
@<TRIPOS>SUBSTRUCTURE
     1 2TU         1 TEMP              0 ****  ****    0 ROOT
