@<TRIPOS>MOLECULE
molecule
   31    31     1     0     0
SMALL
bcc


@<TRIPOS>ATOM
      1 CAB          0.0000     0.0000     0.0000 c3         1 2TV      -0.140100
      2 CAP          1.5070     0.0000     0.0000 c          1 2TV       0.623100
      3 OAD          2.1110     0.0000     1.0470 o          1 2TV      -0.512000
      4 OAN          2.1790     0.0010    -1.1630 os         1 2TV      -0.354200
      5 CAI          3.5290     0.0010    -1.0920 c2         1 2TV       0.064100
      6 CAR          4.2610     0.0020    -2.2170 ce         1 2TV      -0.309800
      7 CAJ          3.5880    -0.1580    -3.5670 c3         1 2TV       0.097900
      8 SAO          4.6310    -1.2900    -4.5420 ss         1 2TV      -0.462200
      9 CAS          5.7110     0.1620    -2.1530 ce         1 2TV       0.489600
     10 CAQ          6.2810     0.6150    -0.8560 c          1 2TV       0.800300
     11 OAF          5.5420     0.9500     0.0460 o          1 2TV      -0.801300
     12 OAE          7.6150     0.6530    -0.6830 o          1 2TV      -0.801300
     13 NAL          6.5390    -0.0510    -3.1040 n2         1 2TV      -0.596900
     14 CAU          6.2390    -0.4480    -4.4710 c3         1 2TV       0.247600
     15 CAV          7.3310    -1.3970    -4.9700 c3         1 2TV       0.025700
     16 NAK          8.6420    -0.7660    -4.8030 ns         1 2TV      -0.545900
     17 CAH          9.7470    -1.5280    -4.6820 c          1 2TV       0.674900
     18 OAC          9.6550    -2.7380    -4.7130 o          1 2TV      -0.643100
     19 CAT          7.1030    -1.7030    -6.4290 c          1 2TV       0.558900
     20 OAG          7.9480    -1.4220    -7.2430 o          1 2TV      -0.533100
     21 H1          -0.3610     0.8480    -0.5690 hc         1 2TV       0.063033
     22 H2          -0.3610    -0.9170    -0.4500 hc         1 2TV       0.063033
     23 H3          -0.3610     0.0690     1.0190 hc         1 2TV       0.063033
     24 H7           3.5220     0.8030    -4.0630 h1         1 2TV       0.067700
     25 H8           2.6000    -0.5840    -3.4390 h1         1 2TV       0.067700
     26 H10          6.2090     0.4340    -5.1000 h2         1 2TV       0.066700
     27 H11          7.2970    -2.3170    -4.3990 h1         1 2TV       0.119700
     28 H12          8.7200     0.2320    -4.8040 hn         1 2TV       0.328500
     29 H13         10.7190    -1.0610    -4.5770 h5         1 2TV       0.020200
     30 H14          6.1930    -2.2000    -6.7420 h4         1 2TV       0.004200
     31 H4           4.0170     0.1150    -0.1320 h4         1 2TV       0.253000
@<TRIPOS>BOND
     1     1    21 1   
     2     1    22 1   
     3     1    23 1   
     4     2     1 1   
     5     2     3 2   
     6     4     5 1   
     7     4     2 1   
     8     6     9 1   
     9     6     5 2   
    10     7     6 1   
    11     7    24 1   
    12     7    25 1   
    13     8    14 1   
    14     8     7 1   
    15     9    10 1   
    16    10    11 1   
    17    10    12 1   
    18    13     9 2   
    19    14    13 1   
    20    14    26 1   
    21    15    19 1   
    22    15    14 1   
    23    15    27 1   
    24    16    15 1   
    25    16    28 1   
    26    17    16 1   
    27    17    29 1   
    28    18    17 2   
    29    19    20 2   
    30    19    30 1   
    31     5    31 1   
@<TRIPOS>SUBSTRUCTURE
     1 2TV         1 TEMP              0 ****  ****    0 ROOT
