@<TRIPOS>MOLECULE
2TV
   31    31     1     0     0
SMALL
bcc


@<TRIPOS>ATOM
      1 CAB          0.0000     0.0000     0.0000 c3         1 2TV      -0.039100
      2 CAP          1.5070     0.0000     0.0000 c          1 2TV       0.673100
      3 OAD          2.1110     0.0000     1.0470 o          1 2TV      -0.544000
      4 OAN          2.1790     0.0010    -1.1630 os         1 2TV      -0.328200
      5 CAI          3.5290     0.0010    -1.0920 c2         1 2TV       0.094100
      6 CAR          4.2610     0.0020    -2.2170 ce         1 2TV      -0.329800
      7 CAJ          3.5880    -0.1580    -3.5670 c3         1 2TV       0.175900
      8 SAO          4.6310    -1.2900    -4.5420 ss         1 2TV      -0.484200
      9 CAS          5.7110     0.1620    -2.1530 ce         1 2TV       0.456600
     10 CAQ          6.2810     0.6150    -0.8560 c          1 2TV       0.880300
     11 OAF          5.5420     0.9500     0.0460 o          1 2TV      -0.855300
     12 OAE          7.6150     0.6530    -0.6830 o          1 2TV      -0.855300
     13 NAL          6.5390    -0.0510    -3.1040 n2         1 2TV      -0.519900
     14 CAU          6.2390    -0.4480    -4.4710 c3         1 2TV       0.254600
     15 CAV          7.3310    -1.3970    -4.9700 c3         1 2TV      -0.089300
     16 NAK          8.6420    -0.7660    -4.8030 ns         1 2TV      -0.148900
     17 CAH          9.7470    -1.5280    -4.6820 c          1 2TV       0.628900
     18 OAC          9.6550    -2.7380    -4.7130 o          1 2TV      -0.687100
     19 CAT          7.1030    -1.7030    -6.4290 c          1 2TV       0.647900
     20 OAG          7.9480    -1.4220    -7.2430 o          1 2TV      -0.571100
     21 H1          -0.3610     0.0690     1.0190 hc         1 2TV       0.022033
     22 H2          -0.3610     0.8480    -0.5690 hc         1 2TV       0.022033
     23 H3          -0.3610    -0.9170    -0.4500 hc         1 2TV       0.022033
     24 H7           2.6000    -0.5840    -3.4390 h1         1 2TV       0.041200
     25 H8           3.5220     0.8030    -4.0630 h1         1 2TV       0.041200
     26 H10          6.2090     0.4340    -5.1000 h2         1 2TV       0.043700
     27 H11          7.2970    -2.3170    -4.3990 h1         1 2TV       0.094700
     28 H12          8.7200     0.2320    -4.8020 hn         1 2TV       0.183500
     29 H13         10.7190    -1.0610    -4.5790 h5         1 2TV      -0.025800
     30 H14          6.1920    -2.1980    -6.7420 h4         1 2TV      -0.027800
     31 H4           4.0200    -0.0440    -0.1280 h4         1 2TV       0.223000
@<TRIPOS>BOND
     1     1     2 1   
     2     1    21 1   
     3     1    22 1   
     4     1    23 1   
     5     2     3 2   
     6     2     4 1   
     7     4     5 1   
     8     5     6 2   
     9     5    31 1   
    10     6     7 1   
    11     6     9 1   
    12     7     8 1   
    13     7    24 1   
    14     7    25 1   
    15     8    14 1   
    16     9    10 1   
    17     9    13 2   
    18    10    11 1   
    19    10    12 1   
    20    13    14 1   
    21    14    15 1   
    22    14    26 1   
    23    15    16 1   
    24    15    19 1   
    25    15    27 1   
    26    16    17 1   
    27    16    28 1   
    28    17    18 2   
    29    17    29 1   
    30    19    20 2   
    31    19    30 1   
@<TRIPOS>SUBSTRUCTURE
     1 2TV         1 TEMP              0 ****  ****    0 ROOT
