@<TRIPOS>MOLECULE
molecule
   67    70     1     0     0
SMALL
bcc


@<TRIPOS>ATOM
      1 C14          0.0000     0.0000     0.0000 ca         1 2TW      -0.104000
      2 C13          1.3840     0.0000     0.0000 ca         1 2TW       0.021400
      3 Cl2          2.2530    -0.0010    -1.5030 cl         1 2TW      -0.130400
      4 C12          2.0740     0.0000     1.1990 ca         1 2TW      -0.127000
      5 C11          1.3830     0.0010     2.3950 ca         1 2TW      -0.133000
      6 C10          0.0000     0.0020     2.3940 ca         1 2TW      -0.084000
      7 C9          -0.6910     0.0010     1.1970 ca         1 2TW      -0.058300
      8 C8          -2.1980     0.0080     1.1970 c3         1 2TW       0.183400
      9 O1          -2.6820    -0.7500     2.3120 os         1 2TW      -0.363600
     10 C23         -4.0980    -0.9460     2.2800 c3         1 2TW       0.105100
     11 C25         -4.4510    -1.9170     1.1520 c3         1 2TW      -0.213400
     12 C26         -3.8660    -3.2730     1.4550 c          1 2TW       0.893600
     13 O4          -3.2320    -3.4450     2.4680 o          1 2TW      -0.838300
     14 O3          -4.0500    -4.2900     0.5970 o          1 2TW      -0.838300
     15 C24         -4.7900     0.3670     2.0440 c          1 2TW       0.682500
     16 O2          -5.9770     0.4520     2.2740 o          1 2TW      -0.677500
     17 N1          -4.1420     1.4460     1.5890 n          1 2TW      -0.486800
     18 C15         -4.9020     2.6760     1.3470 c3         1 2TW       0.175700
     19 C16         -5.9870     2.4070     0.3020 cx         1 2TW      -0.125700
     20 C22         -5.8290     3.0720    -1.0660 cx         1 2TW      -0.147400
     21 C27         -6.8950     3.5730    -0.0900 cx         1 2TW      -0.147400
     22 C17         -5.5540     3.1360     2.6530 c3         1 2TW      -0.219600
     23 S1          -4.2650     3.5960     3.8430 s6         1 2TW       1.109000
     24 O5          -3.5270     2.4310     4.1840 o          1 2TW      -0.619800
     25 O6          -3.5740     4.7340     3.3460 o          1 2TW      -0.619800
     26 C18         -5.2470     4.1000     5.2830 c3         1 2TW      -0.182200
     27 C20         -6.1050     2.9230     5.7520 c3         1 2TW      -0.070767
     28 C21         -4.3110     4.5300     6.4130 c3         1 2TW      -0.070767
     29 C19         -6.1540     5.2700     4.8980 c3         1 2TW      -0.070767
     30 C7          -2.7040     1.4470     1.3250 c3         1 2TW       0.133000
     31 C5          -2.4310     2.1900     0.0420 ca         1 2TW      -0.110300
     32 C4          -1.3420     3.0340    -0.0480 ca         1 2TW      -0.099000
     33 C3          -1.0910     3.7160    -1.2250 ca         1 2TW      -0.130500
     34 C2          -1.9310     3.5530    -2.3100 ca         1 2TW       0.029400
     35 Cl1         -1.6160     4.4080    -3.7880 cl         1 2TW      -0.127400
     36 C1          -3.0220     2.7070    -2.2190 ca         1 2TW      -0.130500
     37 C6          -3.2680     2.0220    -1.0450 ca         1 2TW      -0.099000
     38 H1          -0.5410    -0.0560    -0.9370 ha         1 2TW       0.148000
     39 H2           3.1570    -0.0100     1.1990 ha         1 2TW       0.131000
     40 H3           1.9230    -0.0360     3.3330 ha         1 2TW       0.131000
     41 H4          -0.5420    -0.0070     3.3320 ha         1 2TW       0.163000
     42 H5          -2.5680    -0.4250     0.2760 h1         1 2TW       0.071700
     43 H6          -4.4230    -1.3560     3.2290 h1         1 2TW       0.129700
     44 H7          -5.5280    -1.9990     1.0700 hc         1 2TW       0.044200
     45 H8          -4.0450    -1.5490     0.2180 hc         1 2TW       0.044200
     46 H10         -4.2340     3.4480     0.9850 h1         1 2TW       0.073700
     47 H11         -6.4640     1.4340     0.2810 hc         1 2TW       0.117700
     48 H12         -4.9610     3.7100    -1.1780 hc         1 2TW       0.073200
     49 H13         -6.1990     2.5010    -1.9090 hc         1 2TW       0.073200
     50 H14         -7.9160     3.3090    -0.3360 hc         1 2TW       0.073200
     51 H15         -6.6780     4.5180     0.3950 hc         1 2TW       0.073200
     52 H16         -6.1530     2.3310     3.0610 h1         1 2TW       0.118700
     53 H17         -6.1870     3.9930     2.4570 h1         1 2TW       0.118700
     54 H18         -6.9130     2.7620     5.0480 hc         1 2TW       0.048256
     55 H19         -5.4930     2.0310     5.8100 hc         1 2TW       0.048256
     56 H20         -6.5160     3.1430     6.7300 hc         1 2TW       0.048256
     57 H21         -3.6720     3.6990     6.6890 hc         1 2TW       0.048256
     58 H22         -4.8970     4.8350     7.2720 hc         1 2TW       0.048256
     59 H23         -3.7000     5.3600     6.0800 hc         1 2TW       0.048256
     60 H24         -7.0700     4.8890     4.4620 hc         1 2TW       0.048256
     61 H25         -6.3900     5.8510     5.7820 hc         1 2TW       0.048256
     62 H26         -5.6460     5.8990     4.1770 hc         1 2TW       0.048256
     63 H27         -2.1900     1.9350     2.1440 h1         1 2TW       0.079700
     64 H28         -0.6840     3.1620     0.8030 ha         1 2TW       0.153500
     65 H29         -0.2360     4.3790    -1.2950 ha         1 2TW       0.141500
     66 H30         -3.6790     2.5770    -3.0700 ha         1 2TW       0.141500
     67 H31         -4.1230     1.3600    -0.9730 ha         1 2TW       0.153500
@<TRIPOS>BOND
     1    13    12 1
     2    12    14 1
     3    12    11 1
     4     3     2 1
     5    11    10 1
     6     2     1 ar
     7     2     4 ar
     8     1     7 ar
     9     4     5 ar
    10     7     8 1
    11     7     6 ar
    12     9    10 1
    13     9     8 1
    14    10    15 1
    15     8    30 1
    16     5     6 ar
    17    37    36 ar
    18    37    31 ar
    19    36    34 ar
    20    15    16 2
    21    15    17 1
    22    30    31 1
    23    30    17 1
    24    31    32 ar
    25    34    35 1
    26    34    33 ar
    27    17    18 1
    28    20    19 1
    29    20    21 1
    30    19    18 1
    31    19    21 1
    32    32    33 ar
    33    18    22 1
    34    24    23 2
    35    22    23 1
    36    23    25 2
    37    23    26 1
    38    26    27 1
    39    26    28 1
    40    26    29 1
    41     1    38 1
    42     4    39 1
    43     5    40 1
    44     6    41 1
    45     8    42 1
    46    10    43 1
    47    11    44 1
    48    11    45 1
    49    18    46 1
    50    19    47 1
    51    20    48 1
    52    20    49 1
    53    21    50 1
    54    21    51 1
    55    22    52 1
    56    22    53 1
    57    27    54 1
    58    27    55 1
    59    27    56 1
    60    28    57 1
    61    28    58 1
    62    28    59 1
    63    29    60 1
    64    29    61 1
    65    29    62 1
    66    30    63 1
    67    32    64 1
    68    33    65 1
    69    36    66 1
    70    37    67 1
@<TRIPOS>SUBSTRUCTURE
     1 2TW         1 TEMP              0 ****  ****    0 ROOT
