@<TRIPOS>MOLECULE
molecule
   81    81     1     0     0
SMALL
bcc


@<TRIPOS>ATOM
      1 CBA          0.0000     0.0000     0.0000 c3         1 2TX      -0.070100
      2 CAY          1.5290     0.0000     0.0000 cx         1 2TX       0.044800
      3 CBB          2.1930    -0.7530    -1.1540 c3         1 2TX      -0.070100
      4 OAZ          2.1950     0.0000     1.2650 op         1 2TX      -0.378600
      5 CAX          2.2430     1.2380     0.5480 cx         1 2TX       0.044100
      6 CAW          3.5710     1.6390    -0.0960 c3         1 2TX      -0.059400
      7 CAV          4.0840     2.9260     0.5530 c3         1 2TX      -0.038200
      8 CAT          5.3930     3.3210    -0.0810 c2         1 2TX      -0.128400
      9 CAU          6.6840     2.7250     0.4210 c3         1 2TX      -0.052900
     10 CAS          5.4090     4.1820    -1.0670 c2         1 2TX      -0.183200
     11 CAR          6.7030     4.4880    -1.7790 c3         1 2TX      -0.046200
     12 CAQ          6.5180     4.2800    -3.2830 c3         1 2TX      -0.035200
     13 CAO          7.8110     4.5860    -3.9950 c2         1 2TX      -0.125400
     14 CAP          8.1420     6.0060    -4.3780 c3         1 2TX      -0.054900
     15 CAN          8.6470     3.6180    -4.2790 c2         1 2TX      -0.183200
     16 CAM          9.8820     3.9050    -5.0940 c3         1 2TX      -0.076200
     17 CAL         11.1180     3.4170    -4.3380 c3         1 2TX      -0.088200
     18 CAK         12.3530     3.7030    -5.1530 c2         1 2TX      -0.522200
     19 CAJ         13.3190     4.4280    -4.6460 c2         1 2TX       0.032600
     20 CBC         13.1360     5.0980    -3.3080 c3         1 2TX      -0.127900
     21 CAI         14.6140     4.5910    -5.4000 c3         1 2TX      -0.071200
     22 CAH         14.5680     5.8830    -6.2190 c3         1 2TX      -0.088200
     23 CAG         15.8630     6.0460    -6.9720 c2         1 2TX      -0.528200
     24 CAF         15.8510     6.1650    -8.2760 c2         1 2TX       0.038600
     25 CBD         14.5570     6.0170    -9.0350 c3         1 2TX      -0.129900
     26 CAE         17.1310     6.4500    -9.0200 c3         1 2TX      -0.071200
     27 CAD         17.7400     5.1350    -9.5110 c3         1 2TX      -0.091200
     28 CAC         19.0190     5.4210   -10.2530 c2         1 2TX      -0.522200
     29 CAB         20.1400     4.8640    -9.8650 c2         1 2TX       0.033600
     30 CBE         20.1650     4.0050    -8.6280 c3         1 2TX      -0.095400
     31 CAA         21.4030     5.0830   -10.6560 c3         1 2TX      -0.095400
     32 H1          -0.3610    -1.0110    -0.1470 hc         1 2TX       0.046867
     33 H2          -0.3610     0.6330    -0.8020 hc         1 2TX       0.046867
     34 H3          -0.3610     0.3780     0.9490 hc         1 2TX       0.046867
     35 H4           2.2230    -0.1170    -2.0310 hc         1 2TX       0.046867
     36 H5           1.6250    -1.6480    -1.3770 hc         1 2TX       0.046867
     37 H6           3.2030    -1.0260    -0.8740 hc         1 2TX       0.046867
     38 H7           1.5860     2.0110     0.9300 h1         1 2TX       0.089700
     39 H8           4.2960     0.8470     0.0500 hc         1 2TX       0.057700
     40 H9           3.4230     1.8030    -1.1560 hc         1 2TX       0.057700
     41 H10          4.2320     2.7620     1.6140 hc         1 2TX       0.050200
     42 H11          3.3590     3.7180     0.4080 hc         1 2TX       0.050200
     43 H13          6.4970     2.1750     1.3350 hc         1 2TX       0.042700
     44 H14          7.3970     3.5170     0.6150 hc         1 2TX       0.042700
     45 H15          7.0870     2.0530    -0.3280 hc         1 2TX       0.042700
     46 H16          4.4810     4.6100    -1.4260 ha         1 2TX       0.125000
     47 H18          6.9840     5.5170    -1.5890 hc         1 2TX       0.051200
     48 H19          7.4800     3.8280    -1.4150 hc         1 2TX       0.051200
     49 H20          5.7400     4.9400    -3.6460 hc         1 2TX       0.049700
     50 H21          6.2370     3.2510    -3.4730 hc         1 2TX       0.049700
     51 H22          9.0330     6.3240    -3.8510 hc         1 2TX       0.041700
     52 H23          7.3150     6.6530    -4.1130 hc         1 2TX       0.041700
     53 H24          8.3160     6.0600    -5.4460 hc         1 2TX       0.041700
     54 H25          8.4080     2.5990    -4.0020 ha         1 2TX       0.132000
     55 H26          9.8140     3.3900    -6.0450 hc         1 2TX       0.059700
     56 H27          9.9610     4.9720    -5.2660 hc         1 2TX       0.059700
     57 H28         11.1860     3.9310    -3.3870 hc         1 2TX       0.061200
     58 H29         11.0380     2.3500    -4.1670 hc         1 2TX       0.061200
     59 H30         11.5360     4.4130    -5.0970 ha         1 2TX       0.342000
     60 H33         12.3310     5.8200    -3.3730 hc         1 2TX       0.052367
     61 H34         14.0530     5.6030    -3.0290 hc         1 2TX       0.052367
     62 H35         12.8930     4.3520    -2.5610 hc         1 2TX       0.052367
     63 H36         15.4380     4.6380    -4.6980 hc         1 2TX       0.072200
     64 H37         14.7530     3.7470    -6.0650 hc         1 2TX       0.072200
     65 H38         13.7450     5.8370    -6.9210 hc         1 2TX       0.061200
     66 H39         14.4280     6.7270    -5.5540 hc         1 2TX       0.061200
     67 H40         15.3760     5.0840    -6.8710 ha         1 2TX       0.346000
     68 H41         14.1700     5.0150    -8.8970 hc         1 2TX       0.054033
     69 H42         13.8360     6.7360    -8.6640 hc         1 2TX       0.054033
     70 H43         14.7330     6.1930   -10.0890 hc         1 2TX       0.054033
     71 H44         16.9210     7.0900    -9.8690 hc         1 2TX       0.072200
     72 H45         17.8300     6.9460    -8.3580 hc         1 2TX       0.072200
     73 H46         17.0410     4.6390   -10.1740 hc         1 2TX       0.060200
     74 H47         17.9490     4.4950    -8.6620 hc         1 2TX       0.060200
     75 H48         18.7510     5.9260    -9.3330 ha         1 2TX       0.343000
     76 H51         19.4570     3.1920    -8.7380 hc         1 2TX       0.052200
     77 H52         19.8950     4.6040    -7.7670 hc         1 2TX       0.052200
     78 H53         21.1600     3.6000    -8.4900 hc         1 2TX       0.052200
     79 H54         21.1760     5.6500   -11.5510 hc         1 2TX       0.052200
     80 H55         21.8270     4.1250   -10.9340 hc         1 2TX       0.052200
     81 H56         22.1160     5.6320   -10.0530 hc         1 2TX       0.052200
@<TRIPOS>BOND
     1    14    13 1   
     2    12    13 1   
     3    12    11 1   
     4    13    15 2   
     5    11    10 1   
     6    15    16 1   
     7    16    17 1   
     8    17    18 1   
     9    10     8 2   
    10     9     8 1   
    11    18    19 2   
    12    20    19 1   
    13     8     7 1   
    14    19    21 1   
    15    21    22 1   
    16     7     6 1   
    17     6     5 1   
    18    22    23 1   
    19    23    24 2   
    20     5     4 1   
    21     5     2 1   
    22    24    25 1   
    23    24    26 1   
    24     4     2 1   
    25     3     2 1   
    26     2     1 1   
    27    26    27 1   
    28    27    28 1   
    29    28    29 2   
    30    29    30 1   
    31    29    31 1   
    32     1    32 1   
    33     1    33 1   
    34     1    34 1   
    35     3    35 1   
    36     3    36 1   
    37     3    37 1   
    38     5    38 1   
    39     6    39 1   
    40     6    40 1   
    41     7    41 1   
    42     7    42 1   
    43     9    43 1   
    44     9    44 1   
    45     9    45 1   
    46    10    46 1   
    47    11    47 1   
    48    11    48 1   
    49    12    49 1   
    50    12    50 1   
    51    14    51 1   
    52    14    52 1   
    53    14    53 1   
    54    15    54 1   
    55    16    55 1   
    56    16    56 1   
    57    17    57 1   
    58    17    58 1   
    59    18    59 1   
    60    20    60 1   
    61    20    61 1   
    62    20    62 1   
    63    21    63 1   
    64    21    64 1   
    65    22    65 1   
    66    22    66 1   
    67    23    67 1   
    68    25    68 1   
    69    25    69 1   
    70    25    70 1   
    71    26    71 1   
    72    26    72 1   
    73    27    73 1   
    74    27    74 1   
    75    28    75 1   
    76    30    76 1   
    77    30    77 1   
    78    30    78 1   
    79    31    79 1   
    80    31    80 1   
    81    31    81 1   
@<TRIPOS>SUBSTRUCTURE
     1 2TX         1 TEMP              0 ****  ****    0 ROOT
