@<TRIPOS>MOLECULE
2TX
   81    81     1     0     0
SMALL
bcc


@<TRIPOS>ATOM
      1 CBA         0.7730    1.6980    3.0240 c3        1 2TX     -0.083100
      2 CAY         1.7390    2.5810    2.2960 cx        1 2TX      0.074800
      3 CBB         2.9800    2.9110    3.0630 c3        1 2TX     -0.083100
      4 OAZ         1.1380    3.6830    1.5820 os        1 2TX     -0.405600
      5 CAX         1.7180    2.6260    0.7990 cx        1 2TX      0.068100
      6 CAW         2.9370    2.9800    0.0020 c3        1 2TX     -0.073400
      7 CAV         2.6840    2.8320   -1.4870 c3        1 2TX     -0.038200
      8 CAT         3.8700    3.2510   -2.2870 c2        1 2TX     -0.124400
      9 CAU         4.1920    4.6980   -2.2840 c3        1 2TX     -0.060900
     10 CAS         4.5970    2.3590   -2.9800 c2        1 2TX     -0.172200
     11 CAR         5.7710    2.7290   -3.8040 c3        1 2TX     -0.044200
     12 CAQ         6.5030    1.5090   -4.3320 c3        1 2TX     -0.038200
     13 CAO         7.6490    1.8910   -5.2060 c2        1 2TX     -0.124400
     14 CAP         7.3090    2.5050   -6.5120 c3        1 2TX     -0.058900
     15 CAN         8.9200    1.6790   -4.8260 c2        1 2TX     -0.173200
     16 CAM        10.0910    2.0230   -5.6650 c3        1 2TX     -0.045200
     17 CAL        11.3980    1.8510   -4.9170 c3        1 2TX     -0.044200
     18 CAK        12.5690    2.2010   -5.7550 c2        1 2TX     -0.174200
     19 CAJ        13.8220    2.2780   -5.2790 c2        1 2TX     -0.123400
     20 CBC        14.1410    2.0240   -3.8540 c3        1 2TX     -0.058900
     21 CAI        14.9700    2.6150   -6.1680 c3        1 2TX     -0.039200
     22 CAH        15.5500    3.9800   -5.8400 c3        1 2TX     -0.043200
     23 CAG        16.7320    4.2950   -6.6750 c2        1 2TX     -0.174200
     24 CAF        17.5150    5.3680   -6.4760 c2        1 2TX     -0.123400
     25 CBD        17.2660    6.3340   -5.3790 c3        1 2TX     -0.058900
     26 CAE        18.7010    5.6340   -7.3390 c3        1 2TX     -0.039200
     27 CAD        18.4340    6.7560   -8.3280 c3        1 2TX     -0.042200
     28 CAC        19.6190    7.0480   -9.1670 c2        1 2TX     -0.178200
     29 CAB        19.5980    7.9050  -10.2010 c2        1 2TX     -0.124400
     30 CBE        18.3700    8.6330  -10.5990 c3        1 2TX     -0.057900
     31 CAA        20.8060    8.1760  -11.0160 c3        1 2TX     -0.057900
     32 H1          0.4710    2.1740    3.9880 hc        1 2TX      0.048867
     33 H2          1.2550    0.7150    3.2410 hc        1 2TX      0.048867
     34 H3         -0.1460    1.5260    2.4130 hc        1 2TX      0.048867
     35 H4          3.5990    3.6630    2.5140 hc        1 2TX      0.048867
     36 H5          3.5840    1.9840    3.2140 hc        1 2TX      0.048867
     37 H6          2.7110    3.3340    4.0610 hc        1 2TX      0.048867
     38 H7          0.9660    2.0150    0.2580 h1        1 2TX      0.085700
     39 H8          3.2460    4.0360    0.2280 hc        1 2TX      0.059200
     40 H9          3.7800    2.3070    0.3110 hc        1 2TX      0.059200
     41 H10         1.8030    3.4650   -1.7800 hc        1 2TX      0.048200
     42 H11         2.4170    1.7650   -1.7140 hc        1 2TX      0.048200
     43 H13         3.3820    5.2960   -1.7990 hc        1 2TX      0.042700
     44 H14         4.3300    5.0710   -3.3300 hc        1 2TX      0.042700
     45 H15         5.1460    4.8790   -1.7260 hc        1 2TX      0.042700
     46 H16         4.3350    1.2890   -2.9630 ha        1 2TX      0.122000
     47 H18         6.4780    3.3580   -3.1960 hc        1 2TX      0.051200
     48 H19         5.4340    3.3670   -4.6690 hc        1 2TX      0.051200
     49 H20         5.7910    0.8720   -4.9230 hc        1 2TX      0.046200
     50 H21         6.8610    0.8900   -3.4660 hc        1 2TX      0.046200
     51 H22         7.8700    2.0010   -7.3390 hc        1 2TX      0.041367
     52 H23         7.5920    3.5880   -6.5140 hc        1 2TX      0.041367
     53 H24         6.2150    2.4260   -6.7280 hc        1 2TX      0.041367
     54 H25         9.1430    1.2220   -3.8480 ha        1 2TX      0.122000
     55 H26        10.0940    1.3720   -6.5830 hc        1 2TX      0.049200
     56 H27        10.0000    3.0850   -6.0240 hc        1 2TX      0.049200
     57 H28        11.4950    0.7850   -4.5700 hc        1 2TX      0.048700
     58 H29        11.3890    2.4920   -3.9930 hc        1 2TX      0.048700
     59 H30        12.3610    2.3960   -6.8190 ha        1 2TX      0.123000
     60 H33        15.2440    1.9480   -3.6890 hc        1 2TX      0.041033
     61 H34        13.7470    2.8570   -3.2170 hc        1 2TX      0.041033
     62 H35        13.6650    1.0720   -3.5090 hc        1 2TX      0.041033
     63 H36        14.6500    2.5980   -7.2440 hc        1 2TX      0.046200
     64 H37        15.7680    1.8330   -6.0470 hc        1 2TX      0.046200
     65 H38        14.7620    4.7680   -5.9970 hc        1 2TX      0.050200
     66 H39        15.8310    4.0160   -4.7520 hc        1 2TX      0.050200
     67 H40        16.9480    3.5900   -7.4950 ha        1 2TX      0.123000
     68 H41        16.1840    6.6160   -5.3400 hc        1 2TX      0.041367
     69 H42        17.8700    7.2650   -5.5120 hc        1 2TX      0.041367
     70 H43        17.5380    5.8740   -4.3960 hc        1 2TX      0.041367
     71 H44        18.9870    4.7070   -7.9040 hc        1 2TX      0.045700
     72 H45        19.5740    5.9100   -6.6880 hc        1 2TX      0.045700
     73 H46        17.5640    6.4780   -8.9830 hc        1 2TX      0.049700
     74 H47        18.1340    7.6850   -7.7690 hc        1 2TX      0.049700
     75 H48        20.5470    6.5190   -8.8980 ha        1 2TX      0.122000
     76 H51        17.6090    7.9160  -10.9990 hc        1 2TX      0.040533
     77 H52        18.5850    9.3950  -11.3880 hc        1 2TX      0.040533
     78 H53        17.9200    9.1540   -9.7160 hc        1 2TX      0.040533
     79 H54        21.6800    7.5670  -10.6770 hc        1 2TX      0.040533
     80 H55        20.6050    7.9370  -12.0910 hc        1 2TX      0.040533
     81 H56        21.0820    9.2580  -10.9460 hc        1 2TX      0.040533
@<TRIPOS>BOND
     1    1    2 1   
     2    1   32 1   
     3    1   33 1   
     4    1   34 1   
     5    2    3 1   
     6    2    4 1   
     7    2    5 1   
     8    3   35 1   
     9    3   36 1   
    10    3   37 1   
    11    4    5 1   
    12    5    6 1   
    13    5   38 1   
    14    6    7 1   
    15    6   39 1   
    16    6   40 1   
    17    7    8 1   
    18    7   41 1   
    19    7   42 1   
    20    8    9 1   
    21    8   10 2   
    22    9   43 1   
    23    9   44 1   
    24    9   45 1   
    25   10   11 1   
    26   10   46 1   
    27   11   12 1   
    28   11   47 1   
    29   11   48 1   
    30   12   13 1   
    31   12   49 1   
    32   12   50 1   
    33   13   14 1   
    34   13   15 2   
    35   14   51 1   
    36   14   52 1   
    37   14   53 1   
    38   15   16 1   
    39   15   54 1   
    40   16   17 1   
    41   16   55 1   
    42   16   56 1   
    43   17   18 1   
    44   17   57 1   
    45   17   58 1   
    46   18   19 2   
    47   18   59 1   
    48   19   20 1   
    49   19   21 1   
    50   20   60 1   
    51   20   61 1   
    52   20   62 1   
    53   21   22 1   
    54   21   63 1   
    55   21   64 1   
    56   22   23 1   
    57   22   65 1   
    58   22   66 1   
    59   23   24 2   
    60   23   67 1   
    61   24   25 1   
    62   24   26 1   
    63   25   68 1   
    64   25   69 1   
    65   25   70 1   
    66   26   27 1   
    67   26   71 1   
    68   26   72 1   
    69   27   28 1   
    70   27   73 1   
    71   27   74 1   
    72   28   29 2   
    73   28   75 1   
    74   29   30 1   
    75   29   31 1   
    76   30   76 1   
    77   30   77 1   
    78   30   78 1   
    79   31   79 1   
    80   31   80 1   
    81   31   81 1   
@<TRIPOS>SUBSTRUCTURE
     1 2TX         1 TEMP              0 ****  ****    0 ROOT
