@<TRIPOS>MOLECULE
molecule
   66    68     1     0     0
SMALL
bcc


@<TRIPOS>ATOM
      1 C17          0.0000     0.0000     0.0000 ca         1 2TZ      -0.084000
      2 C16          1.3840     0.0000     0.0000 ca         1 2TZ       0.023400
      3 Cl2          2.2510     0.0010    -1.5030 cl         1 2TZ      -0.126400
      4 C15          2.0740     0.0000     1.1990 ca         1 2TZ      -0.128000
      5 C14          1.3830     0.0010     2.3950 ca         1 2TZ      -0.128000
      6 C13         -0.0000    -0.0000     2.3940 ca         1 2TZ      -0.113000
      7 C6          -0.6910     0.0060     1.1970 ca         1 2TZ      -0.054300
      8 C19         -2.1980     0.0050     1.1980 c3         1 2TZ       0.177400
      9 O6          -2.6790     0.7850     0.0960 os         1 2TZ      -0.374600
     10 C4          -4.0930     0.9880     0.1310 c3         1 2TZ       0.108100
     11 C21         -4.4420     1.9410     1.2760 c3         1 2TZ      -0.198400
     12 C23         -3.8510     3.2990     0.9960 c          1 2TZ       0.891600
     13 O3          -4.0290     4.3010     1.8710 o          1 2TZ      -0.846300
     14 O2          -3.2160     3.4850    -0.0140 o          1 2TZ      -0.846300
     15 C5          -4.7920    -0.3270     0.3450 c          1 2TZ       0.675500
     16 O1          -5.9800    -0.4020     0.1140 o          1 2TZ      -0.655500
     17 N1          -4.1480    -1.4170     0.7810 n          1 2TZ      -0.488800
     18 C18         -4.9140    -2.6460     1.0000 c3         1 2TZ       0.138700
     19 C20         -5.3700    -2.7090     2.4590 c3         1 2TZ      -0.251600
     20 C26         -2.7120    -1.4280     1.0450 c3         1 2TZ       0.141000
     21 C7          -2.4420    -2.1950     2.3140 ca         1 2TZ      -0.054300
     22 C8          -1.6450    -3.3240     2.2820 ca         1 2TZ      -0.124500
     23 C9          -1.3980    -4.0280     3.4470 ca         1 2TZ      -0.143000
     24 C10         -1.9470    -3.6020     4.6420 ca         1 2TZ       0.015400
     25 Cl1         -1.6370    -4.4850     6.1040 cl         1 2TZ      -0.126400
     26 C11         -2.7450    -2.4710     4.6730 ca         1 2TZ      -0.143000
     27 C12         -2.9870    -1.7650     3.5090 ca         1 2TZ      -0.124500
     28 S1          -6.3850    -1.2540     2.8390 s6         1 2TZ       1.132000
     29 O4          -5.5550    -0.1020     2.8100 o          1 2TZ      -0.592300
     30 O5          -7.5500    -1.2890     2.0250 o          1 2TZ      -0.592300
     31 C3          -6.8720    -1.5730     4.5570 c3         1 2TZ      -0.194200
     32 C1          -4.0340    -3.8580     0.6890 c3         1 2TZ      -0.112400
     33 C2          -3.5820    -3.7980    -0.7720 c3         1 2TZ      -0.094100
     34 C22         -7.6540    -2.8870     4.6300 c3         1 2TZ      -0.071100
     35 C24         -5.6200    -1.6760     5.4310 c3         1 2TZ      -0.071100
     36 C25         -7.7520    -0.4280     5.0590 c3         1 2TZ      -0.071100
     37 H1          -0.5420     0.0050    -0.9380 ha         1 2TZ       0.166000
     38 H2           3.1580     0.0010     1.2000 ha         1 2TZ       0.132000
     39 H3           1.9240    -0.0020     3.3340 ha         1 2TZ       0.128000
     40 H4          -0.5420     0.0020     3.3320 ha         1 2TZ       0.131000
     41 H5          -2.5660     0.4250     2.1260 h1         1 2TZ       0.084700
     42 H6          -4.4160     1.4160    -0.8100 h1         1 2TZ       0.126700
     43 H7          -5.5190     2.0260     1.3590 hc         1 2TZ       0.059200
     44 H8          -4.0380     1.5550     2.2040 hc         1 2TZ       0.059200
     45 H10         -5.7810    -2.6520     0.3510 h1         1 2TZ       0.099700
     46 H11         -5.9540    -3.6070     2.6170 h1         1 2TZ       0.102700
     47 H12         -4.5030    -2.7230     3.1080 h1         1 2TZ       0.102700
     48 H13         -2.2000    -1.9040     0.2170 h1         1 2TZ       0.060700
     49 H14         -1.1670    -3.6230     1.3570 ha         1 2TZ       0.166000
     50 H15         -0.7750    -4.9140     3.4220 ha         1 2TZ       0.145000
     51 H16         -3.1100    -2.0930     5.6200 ha         1 2TZ       0.145000
     52 H17         -2.7980    -0.8450     4.0490 ha         1 2TZ       0.166000
     53 H18         -4.5990    -4.7680     0.8550 hc         1 2TZ       0.052200
     54 H19         -3.1650    -3.8500     1.3360 hc         1 2TZ       0.052200
     55 H20         -3.9020    -2.8610    -1.2110 hc         1 2TZ       0.037033
     56 H21         -2.5020    -3.8690    -0.8190 hc         1 2TZ       0.037033
     57 H22         -4.0220    -4.6230    -1.3200 hc         1 2TZ       0.037033
     58 H23         -8.1570    -2.9550     5.5860 hc         1 2TZ       0.046033
     59 H24         -8.3870    -2.9150     3.8330 hc         1 2TZ       0.046033
     60 H25         -6.9700    -3.7210     4.5210 hc         1 2TZ       0.046033
     61 H26         -5.9020    -1.6080     6.4740 hc         1 2TZ       0.046033
     62 H27         -5.1290    -2.6250     5.2500 hc         1 2TZ       0.046033
     63 H28         -4.9420    -0.8670     5.1870 hc         1 2TZ       0.046033
     64 H29         -8.0960    -0.6500     6.0620 hc         1 2TZ       0.046033
     65 H30         -8.6060    -0.3140     4.4020 hc         1 2TZ       0.046033
     66 H31         -7.1790     0.4910     5.0690 hc         1 2TZ       0.046033
@<TRIPOS>BOND
     1    36    31 1   
     2    34    31 1   
     3    31    35 1   
     4    31    28 1   
     5    29    28 2   
     6    28    19 1   
     7    28    30 2   
     8    19    18 1   
     9    33    32 1   
    10    18    32 1   
    11    18    17 1   
    12    26    27 ar  
    13    26    24 ar  
    14    27    21 ar  
    15    17    20 1   
    16    17    15 1   
    17    25    24 1   
    18    24    23 ar  
    19    21    20 1   
    20    21    22 ar  
    21    20     8 1   
    22    16    15 2   
    23    15    10 1   
    24    23    22 ar  
    25     6     5 ar  
    26     6     7 ar  
    27     5     4 ar  
    28     8     9 1   
    29     8     7 1   
    30    10     9 1   
    31    10    11 1   
    32     7     1 ar  
    33     4     2 ar  
    34     1     2 ar  
    35     2     3 1   
    36    11    12 1   
    37    14    12 1   
    38    12    13 1   
    39     1    37 1   
    40     4    38 1   
    41     5    39 1   
    42     6    40 1   
    43     8    41 1   
    44    10    42 1   
    45    11    43 1   
    46    11    44 1   
    47    18    45 1   
    48    19    46 1   
    49    19    47 1   
    50    20    48 1   
    51    22    49 1   
    52    23    50 1   
    53    26    51 1   
    54    27    52 1   
    55    32    53 1   
    56    32    54 1   
    57    33    55 1   
    58    33    56 1   
    59    33    57 1   
    60    34    58 1   
    61    34    59 1   
    62    34    60 1   
    63    35    61 1   
    64    35    62 1   
    65    35    63 1   
    66    36    64 1   
    67    36    65 1   
    68    36    66 1   
@<TRIPOS>SUBSTRUCTURE
     1 2TZ         1 TEMP              0 ****  ****    0 ROOT
