@<TRIPOS>MOLECULE
2TZ
   66    68     1     0     0
SMALL
bcc


@<TRIPOS>ATOM
      1 C17          0.0000     0.0000     0.0000 ca         1 2TZ      -0.064000
      2 C16          1.3840     0.0000     0.0000 ca         1 2TZ      -0.032600
      3 Cl2          2.2510     0.0010    -1.5030 cl         1 2TZ      -0.051400
      4 C15          2.0740     0.0000     1.1990 ca         1 2TZ      -0.111000
      5 C14          1.3830     0.0010     2.3950 ca         1 2TZ      -0.100000
      6 C13         -0.0000    -0.0000     2.3940 ca         1 2TZ      -0.091000
      7 C6          -0.6910     0.0060     1.1970 ca         1 2TZ      -0.059300
      8 C19         -2.1980     0.0050     1.1980 c3         1 2TZ       0.200400
      9 O6          -2.6790     0.7850     0.0960 os         1 2TZ      -0.361600
     10 C4          -4.0930     0.9880     0.1310 c3         1 2TZ       0.146100
     11 C21         -4.4420     1.9410     1.2760 c3         1 2TZ      -0.165400
     12 C23         -3.8510     3.2990     0.9960 c          1 2TZ       0.981600
     13 O3          -4.0290     4.3010     1.8710 o          1 2TZ      -0.900800
     14 O2          -3.2160     3.4850    -0.0140 o          1 2TZ      -0.900800
     15 C5          -4.7920    -0.3270     0.3450 c          1 2TZ       0.607500
     16 O1          -5.9800    -0.4020     0.1140 o          1 2TZ      -0.680500
     17 N1          -4.1480    -1.4170     0.7810 n          1 2TZ      -0.152800
     18 C18         -4.9140    -2.6460     1.0000 c3         1 2TZ       0.069700
     19 C20         -5.3700    -2.7090     2.4590 c3         1 2TZ      -0.103600
     20 C26         -2.7120    -1.4280     1.0450 c3         1 2TZ       0.053000
     21 C7          -2.4420    -2.1950     2.3140 ca         1 2TZ      -0.045300
     22 C8          -1.6450    -3.3240     2.2820 ca         1 2TZ      -0.102000
     23 C9          -1.3980    -4.0280     3.4470 ca         1 2TZ      -0.121500
     24 C10         -1.9470    -3.6020     4.6420 ca         1 2TZ      -0.046600
     25 Cl1         -1.6370    -4.4850     6.1040 cl         1 2TZ      -0.042400
     26 C11         -2.7450    -2.4710     4.6730 ca         1 2TZ      -0.121500
     27 C12         -2.9870    -1.7650     3.5090 ca         1 2TZ      -0.102000
     28 S1          -6.3850    -1.2540     2.8390 s6         1 2TZ       0.802000
     29 O4          -5.5550    -0.1020     2.8100 o          1 2TZ      -0.557800
     30 O5          -7.5500    -1.2890     2.0250 o          1 2TZ      -0.557800
     31 C3          -6.8720    -1.5730     4.5570 c3         1 2TZ      -0.049200
     32 C1          -4.0340    -3.8580     0.6890 c3         1 2TZ      -0.106400
     33 C2          -3.5820    -3.7980    -0.7720 c3         1 2TZ      -0.001100
     34 C22         -7.6540    -2.8870     4.6300 c3         1 2TZ       0.019567
     35 C24         -5.6200    -1.6760     5.4310 c3         1 2TZ       0.019567
     36 C25         -7.7520    -0.4280     5.0590 c3         1 2TZ       0.019567
     37 H1          -0.5420     0.0050    -0.9380 ha         1 2TZ       0.135000
     38 H2           3.1580     0.0010     1.2000 ha         1 2TZ       0.105000
     39 H3           1.9240    -0.0020     3.3340 ha         1 2TZ       0.098000
     40 H4          -0.5420     0.0020     3.3320 ha         1 2TZ       0.105000
     41 H5          -2.5660     0.4250     2.1260 h1         1 2TZ       0.061700
     42 H6          -4.4160     1.4160    -0.8100 h1         1 2TZ       0.079700
     43 H7          -5.5190     2.0260     1.3590 hc         1 2TZ       0.040200
     44 H8          -4.0380     1.5550     2.2040 hc         1 2TZ       0.040200
     45 H10         -5.7810    -2.6520     0.3510 h1         1 2TZ       0.077700
     46 H11         -5.9540    -3.6070     2.6170 h1         1 2TZ       0.089700
     47 H12         -4.5030    -2.7230     3.1080 h1         1 2TZ       0.089700
     48 H13         -2.2000    -1.9040     0.2170 h1         1 2TZ       0.040700
     49 H14         -1.1670    -3.6230     1.3570 ha         1 2TZ       0.143500
     50 H15         -0.7750    -4.9140     3.4220 ha         1 2TZ       0.120000
     51 H16         -3.1100    -2.0930     5.6200 ha         1 2TZ       0.120000
     52 H17         -2.7980    -0.8450     4.0490 ha         1 2TZ       0.143500
     53 H18         -4.5990    -4.7680     0.8550 hc         1 2TZ       0.036200
     54 H19         -3.1650    -3.8500     1.3360 hc         1 2TZ       0.036200
     55 H20         -3.9020    -2.8610    -1.2110 hc         1 2TZ       0.006367
     56 H21         -2.5020    -3.8690    -0.8190 hc         1 2TZ       0.006367
     57 H22         -4.0220    -4.6230    -1.3200 hc         1 2TZ       0.006367
     58 H23         -8.1570    -2.9550     5.5860 hc         1 2TZ       0.014367
     59 H24         -8.3870    -2.9150     3.8330 hc         1 2TZ       0.014367
     60 H25         -6.9700    -3.7210     4.5210 hc         1 2TZ       0.014367
     61 H26         -5.9020    -1.6080     6.4740 hc         1 2TZ       0.014367
     62 H27         -5.1290    -2.6250     5.2500 hc         1 2TZ       0.014367
     63 H28         -4.9420    -0.8670     5.1870 hc         1 2TZ       0.014367
     64 H29         -8.0960    -0.6500     6.0620 hc         1 2TZ       0.014367
     65 H30         -8.6060    -0.3140     4.4020 hc         1 2TZ       0.014367
     66 H31         -7.1790     0.4910     5.0690 hc         1 2TZ       0.014367
@<TRIPOS>BOND
     1     1     2 ar  
     2     1     7 ar  
     3     1    37 1   
     4     2     3 1   
     5     2     4 ar  
     6     4     5 ar  
     7     4    38 1   
     8     5     6 ar  
     9     5    39 1   
    10     6     7 ar  
    11     6    40 1   
    12     7     8 1   
    13     8     9 1   
    14     8    20 1   
    15     8    41 1   
    16     9    10 1   
    17    10    11 1   
    18    10    15 1   
    19    10    42 1   
    20    11    12 1   
    21    11    43 1   
    22    11    44 1   
    23    12    13 1   
    24    12    14 1   
    25    15    16 2   
    26    15    17 1   
    27    17    18 1   
    28    17    20 1   
    29    18    19 1   
    30    18    32 1   
    31    18    45 1   
    32    19    28 1   
    33    19    46 1   
    34    19    47 1   
    35    20    21 1   
    36    20    48 1   
    37    21    22 ar  
    38    21    27 ar  
    39    22    23 ar  
    40    22    49 1   
    41    23    24 ar  
    42    23    50 1   
    43    24    25 1   
    44    24    26 ar  
    45    26    27 ar  
    46    26    51 1   
    47    27    52 1   
    48    28    29 2   
    49    28    30 2   
    50    28    31 1   
    51    31    34 1   
    52    31    35 1   
    53    31    36 1   
    54    32    33 1   
    55    32    53 1   
    56    32    54 1   
    57    33    55 1   
    58    33    56 1   
    59    33    57 1   
    60    34    58 1   
    61    34    59 1   
    62    34    60 1   
    63    35    61 1   
    64    35    62 1   
    65    35    63 1   
    66    36    64 1   
    67    36    65 1   
    68    36    66 1   
@<TRIPOS>SUBSTRUCTURE
     1 2TZ         1 TEMP              0 ****  ****    0 ROOT
