@<TRIPOS>MOLECULE
molecule
   55    56     1     0     0
SMALL
bcc


@<TRIPOS>ATOM
      1 C3           0.0000     0.0000     0.0000 cc         1 2U2      -0.164400
      2 C2           1.3480     0.0000     0.0000 cd         1 2U2       0.384000
      3 C5           1.1170    -0.0000     2.2290 cc         1 2U2       0.782300
      4 C12          3.7810    -0.7340    -5.7400 cc         1 2U2      -0.371200
      5 C15          2.7110    -1.0110    -8.2640 cd         1 2U2       0.015000
      6 C14          4.0570    -1.0790    -8.1340 cc         1 2U2      -0.071100
      7 C11          2.4440    -0.6750    -5.9370 cd         1 2U2       0.220800
      8 C13          4.6340    -0.9400    -6.8460 c          1 2U2       0.562500
      9 C23          6.3960    -0.7080    -0.0110 c          1 2U2       0.465900
     10 C6           2.1410     0.0010    -1.2470 cf         1 2U2       0.371300
     11 C20          3.6160     0.1330    -1.1880 c          1 2U2       0.514800
     12 C34          7.3040     0.9710     5.8000 c          1 2U2       0.837300
     13 C30          7.8910    -0.3450     3.5810 c3         1 2U2      -0.134700
     14 C31          9.1160     0.5430     3.3740 c3         1 2U2      -0.175400
     15 C26          6.0260     1.3450     1.3280 c3         1 2U2      -0.468600
     16 C22          5.6690     0.6110     0.0340 c3         1 2U2      -0.002300
     17 N1           1.9140     0.0000     1.2080 nd         1 2U2      -0.760000
     18 N7           1.5430    -0.1140    -2.3990 n2         1 2U2      -0.425200
     19 N24          6.1370     1.0470     3.6940 n2         1 2U2      -0.468200
     20 N16          1.9200    -0.8120    -7.1780 na         1 2U2      -0.282700
     21 N9           1.5170    -0.0010     3.5550 nv         1 2U2      -0.974500
     22 N21          4.2240     0.3730    -0.0090 ns         1 2U2      -0.573900
     23 O36          7.9160     0.2520     6.6340 o          1 2U2      -0.794800
     24 O33          9.3130     1.3930     1.1220 o          1 2U2      -0.848300
     25 O17          5.8510    -0.9890    -6.7180 o          1 2U2      -0.569100
     26 O28          4.2770     0.0250    -2.2010 o          1 2U2      -0.604100
     27 O35          7.0550     2.1750     6.0710 o          1 2U2      -0.794800
     28 O37         10.1900    -0.5640     1.5140 o          1 2U2      -0.848300
     29 O18          0.5430    -0.6360    -7.3850 oh         1 2U2      -0.325300
     30 O8           2.3080    -0.2220    -3.5860 os         1 2U2      -0.071300
     31 S4          -0.5530     0.0060     1.6720 ss         1 2U2      -0.304300
     32 H1          -0.6370    -0.0700    -0.8740 h4         1 2U2       0.195000
     33 H2           4.1950    -0.5110    -4.7640 ha         1 2U2       0.206000
     34 H3           2.2490    -1.2010    -9.2250 h4         1 2U2       0.146000
     35 H4           5.8710    -1.6230     0.2330 h4         1 2U2       0.235200
     36 H5           2.1140    -0.1640    -3.8970 h1         1 2U2       0.228200
     37 H6           0.8190     0.3290    -4.9980 h1         1 2U2       0.228200
     38 H7           8.1900    -1.2660     4.0670 hc         1 2U2       0.053200
     39 H8           7.4430    -0.5730     2.6210 hc         1 2U2       0.053200
     40 H9           9.9170     0.2100     4.0230 hc         1 2U2       0.040200
     41 H10          8.8620     1.5690     3.6110 hc         1 2U2       0.040200
     42 H11          5.7730     2.3940     1.2290 h1         1 2U2       0.194700
     43 H12          5.4690     0.9160     2.1520 h1         1 2U2       0.194700
     44 H13          5.9620     1.2150    -0.8160 h1         1 2U2       0.128700
     45 H14          2.4910     0.0030     3.7830 hn         1 2U2       0.462300
     46 H15          0.8320     0.0210     4.2840 hn         1 2U2       0.462300
     47 H16          3.6980     0.3350     0.8420 hn         1 2U2       0.325500
     48 H19          4.9410    -1.9110    -9.6370 ho         1 2U2       0.399000
     49 H20          0.4070    -0.0030    -8.0710 ho         1 2U2       0.395000
     50 O27          5.7720    -1.7400    -0.0750 o          1 2U2      -0.556100
     51 C32          9.5690     0.4530     1.9190 c          1 2U2       0.900600
     52 O25          5.7380     0.5050     2.4490 os         1 2U2       0.005700
     53 C10          1.5280    -0.4550    -4.7610 c3         1 2U2      -0.328400
     54 O19          4.8730    -1.0440    -9.2720 oh         1 2U2      -0.496100
     55 C29          6.8740     0.3860     4.4570 ce         1 2U2       0.364300
@<TRIPOS>BOND
     1    21     3 1   
     2     3    17 2   
     3     3    31 1   
     4    17     2 1   
     5    31     1 1   
     6     2    10 1   
     7     2     1 2   
     8    18    30 1   
     9    18    10 2   
    10    30    53 1   
    11    10    11 1   
    12    23    12 1   
    13    53     7 1   
    14     4     7 2   
    15     4     8 1   
    16    50     9 2   
    17    25     8 2   
    18     7    20 1   
    19    22    11 1   
    20    22    16 1   
    21    12    55 1   
    22    12    27 1   
    23    11    26 2   
    24     8     6 1   
    25    13    55 1   
    26    13    14 1   
    27    55    19 2   
    28    19    52 1   
    29     9    16 1   
    30    14    51 1   
    31    52    15 1   
    32    16    15 1   
    33    20    29 1   
    34    20     5 1   
    35     6     5 2   
    36     6    54 1   
    37    51    24 1   
    38    51    28 1   
    39     1    32 1   
    40     4    33 1   
    41     5    34 1   
    42     9    35 1   
    43    53    36 1   
    44    53    37 1   
    45    13    38 1   
    46    13    39 1   
    47    14    40 1   
    48    14    41 1   
    49    15    42 1   
    50    15    43 1   
    51    16    44 1   
    52    21    45 1   
    53    21    46 1   
    54    22    47 1   
    55    54    48 1   
    56    29    49 1   
@<TRIPOS>SUBSTRUCTURE
     1 2U2         1 TEMP              0 ****  ****    0 ROOT
