@<TRIPOS>MOLECULE
2U2
   56    54     1     0     0
SMALL
bcc


@<TRIPOS>ATOM
      1 C3          0.7050   -2.1270    0.0420 cc        1 2U2     -0.163400
      2 C2          1.3110   -0.9770   -0.3680 cd        1 2U2      0.078000
      3 C5         -0.4230   -0.0470    0.9110 cc        1 2U2      0.643100
      4 C12         4.1770    0.1700   -6.5580 cc        1 2U2     -0.260200
      5 C15         1.4080    0.5340   -6.7740 cc        1 2U2      0.032000
      6 C14         2.2310    1.2380   -7.6080 cd        1 2U2     -0.060100
      7 C11         3.3200   -0.5380   -5.7610 cd        1 2U2      0.038800
      8 C13         3.6960    1.1180   -7.5500 c         1 2U2      0.551500
      9 C23         7.4930   -1.2650    2.0440 c         1 2U2      0.640100
     10 C6          2.4390   -0.8930   -1.3400 cf        1 2U2     -0.127600
     11 C20         3.7670   -0.7730   -0.5600 cf        1 2U2      0.514900
     12 C34         2.6950    1.3370    4.0240 c         1 2U2      0.539800
     13 C30         4.8440    2.2150    4.9900 c3        1 2U2     -0.095700
     14 C31         5.3960    3.1510    3.9360 c3        1 2U2     -0.205400
     15 C26         7.9350    1.2210    2.7170 c1        1 2U2      0.052500
     16 C22         7.7340    0.0830    2.3850 cg        1 2U2     -0.357200
     17 N1          0.7600    0.2010    0.1670 na        1 2U2     -0.696000
     18 N7          2.3980   -0.9310   -2.5720 n1        1 2U2     -0.430000
     19 N24         4.7440   -0.0680    4.1100 n2        1 2U2     -0.410200
     20 N16         1.9420   -0.2520   -5.7400 na        1 2U2     -0.241700
     21 N9         -1.1540    0.8870    1.4180 n2        1 2U2     -0.833100
     22 N21         3.9150   -0.4980    0.7240 nh        1 2U2     -0.403100
     23 O36         2.3780    1.1800    2.7050 oh        1 2U2     -0.629100
     24 O33         6.2810    4.7590    5.5020 o         1 2U2     -0.838800
     25 O17         4.4290    1.7800   -8.3090 o         1 2U2     -0.586100
     26 O28         4.9420   -0.9540   -1.2070 oh        1 2U2     -0.580600
     27 O35         1.7830    1.6860    4.7750 o         1 2U2     -0.531000
     28 O37         7.6770    3.9120    3.9810 o         1 2U2     -0.838800
     29 O18         1.1240   -1.1910   -5.2720 oh        1 2U2     -0.380300
     30 O8          4.9440   -1.4950   -4.2960 o         1 2U2     -0.537100
     31 S4         -0.6280   -1.8190    1.0530 ss        1 2U2     -0.227800
     32 H1          1.0030   -3.1350   -0.2340 h4        1 2U2      0.180000
     33 H2          5.2650    0.0360   -6.4570 ha        1 2U2      0.177000
     34 H3          0.3070    0.5900   -6.8170 h4        1 2U2      0.182000
     35 H4          8.4030   -1.8970    1.9080 h4        1 2U2      0.003200
     36 H5          3.1790   -2.4730   -4.6960 h4        1 2U2      0.036200
     37 H6          4.7710   -1.1070   -2.1600 ho        1 2U2      0.499000
     38 H7          5.6850    1.8440    5.6360 hc        1 2U2      0.078700
     39 H8          4.1270    2.7640    5.6560 hc        1 2U2      0.078700
     40 H9          5.7930    2.5710    3.0650 hc        1 2U2      0.032700
     41 H10         4.5930    3.8340    3.5650 hc        1 2U2      0.032700
     42 H11         8.0720    2.2510    3.0440 ha        1 2U2      0.255500
     43 H12         4.7270   -1.7360    3.3680 ho        1 2U2      0.458000
     44 H13         3.1240   -0.3390    1.3200 hn        1 2U2      0.334700
     45 H14        -1.9190    0.5740    1.9730 hn        1 2U2      0.413400
     46 H15         1.4460    1.4200    2.5610 ho        1 2U2      0.453000
     47 H16         0.8860    1.0680   -0.3050 hn        1 2U2      0.458800
     48 H19         2.3760    2.5460   -8.9760 ho        1 2U2      0.441000
     49 H20         1.0480   -1.0220   -4.3020 ho        1 2U2      0.473000
     50 C32         6.5340    4.0080    4.5250 c         1 2U2      0.916600
     51 O25         4.0670   -1.0230    3.5130 oh        1 2U2     -0.382500
     52 C10         3.8430   -1.5920   -4.8360 c         1 2U2      0.618100
     53 C29         4.1230    1.0550    4.3510 ce        1 2U2      0.370300
     54 H212        4.8200   -0.4810    1.1630 hn        1 2U2      0.334700
     55 O27         6.3630   -1.7600    1.9040 o         1 2U2     -0.608100
     56 O19         1.6490    2.0710   -8.5370 oh        1 2U2     -0.496100
@<TRIPOS>BOND
     1    1    2 2   
     2    1   31 1   
     3    1   32 1   
     4    2   10 1   
     5    2   17 1   
     6    3   17 1   
     7    3   21 2   
     8    3   31 1   
     9    4    7 2   
    10    4    8 1   
    11    4   33 1   
    12    5    6 2   
    13    5   20 1   
    14    5   34 1   
    15    6    8 1   
    16    6   56 1   
    17    7   20 1   
    18    7   52 1   
    19    8   25 2   
    20    9   16 1   
    21    9   35 1   
    22    9   55 2   
    23   10   11 1   
    24   10   18 2   
    25   11   22 2   
    26   11   26 1   
    27   12   23 1   
    28   12   27 2   
    29   12   53 1   
    30   13   14 1   
    31   13   38 1   
    32   13   39 1   
    33   13   53 1   
    34   14   40 1   
    35   14   41 1   
    36   14   50 1   
    37   15   16 3   
    38   15   42 1   
    39   17   47 1   
    40   19   51 1   
    41   19   53 2   
    42   20   29 1   
    43   21   45 1   
    44   22   44 1   
    45   22   54 1   
    46   23   46 1   
    47   24   50 1   
    48   26   37 1   
    49   28   50 1   
    50   29   49 1   
    51   30   52 2   
    52   36   52 1   
    53   43   51 1   
    54   48   56 1   
@<TRIPOS>SUBSTRUCTURE
     1 2U2         1 TEMP              0 ****  ****    0 ROOT
