@<TRIPOS>MOLECULE
molecule
   55    56     1     0     0
SMALL
bcc


@<TRIPOS>ATOM
      1 N            0.0000     0.0000     0.0000 ns         1 2U3      -0.553900
      2 CA           1.4650     0.0000     0.0000 c3         1 2U3       0.126700
      3 C            1.9750     0.0000     1.4420 c3         1 2U3       0.127400
      4 O            1.5530     1.1980     2.0970 oh         1 2U3      -0.607800
      5 C2           1.9760     1.2490    -0.7210 c3         1 2U3       0.157200
      6 N3          -2.3120     1.2270    -0.3860 nc         1 2U3      -0.695000
      7 C4          -2.8980     0.1170     0.0640 cc         1 2U3       0.346000
      8 C5          -4.2180     0.2240     0.3100 cd         1 2U3      -0.126400
      9 S6          -4.7180     1.8720    -0.0680 ss         1 2U3      -0.301300
     10 C7          -3.0670     2.2700    -0.5330 cd         1 2U3       0.752300
     11 N8          -2.6420     3.5080    -0.9860 nv         1 2U3      -1.021500
     12 C9          -2.1520    -1.1420     0.2760 ce         1 2U3       0.324300
     13 C10         -0.6740    -1.1560     0.1660 c          1 2U3       0.547800
     14 N11         -2.7940    -2.2400     0.5600 n2         1 2U3      -0.417200
     15 O12         -0.0700    -2.2090     0.2260 o          1 2U3      -0.601100
     16 C13          1.6010     1.1710    -2.2030 c3         1 2U3      -0.094600
     17 C14          1.3380     2.4930    -0.0990 c3         1 2U3      -0.094600
     18 O15          3.9600     2.5140    -1.2680 os         1 2U3      -0.450000
     19 S16          5.4720     2.6630    -1.1740 s6         1 2U3       1.563300
     20 O17          5.7810     3.9460    -1.7010 o          1 2U3      -0.735867
     21 O18          5.8340     2.2540     0.1380 o          1 2U3      -0.735867
     22 O19          6.0860     1.6480    -2.1260 o          1 2U3      -0.735867
     23 O20         -2.0760    -3.4170     0.8820 os         1 2U3      -0.145300
     24 C21         -2.9000    -4.5710     1.0590 c3         1 2U3       0.187600
     25 C22         -2.0520    -5.7290     1.5170 cc         1 2U3       0.137800
     26 N23         -2.6070    -6.9580     1.6380 na         1 2U3      -0.285700
     27 C24         -1.8780    -8.0290     2.0480 cc         1 2U3       0.000000
     28 C25         -0.5640    -7.8930     2.3490 cd         1 2U3      -0.051100
     29 C26          0.0440    -6.6190     2.2320 c          1 2U3       0.546500
     30 C27         -0.7450    -5.5300     1.7980 cd         1 2U3      -0.265200
     31 O28         -3.9780    -7.1320     1.3300 oh         1 2U3      -0.340300
     32 O29          1.2270    -6.4640     2.4980 o          1 2U3      -0.547100
     33 O30          0.1620    -8.9680     2.7610 oh         1 2U3      -0.482100
     34 H1          -0.5010     0.8590    -0.1150 hn         1 2U3       0.359500
     35 H2           1.8260    -0.8850    -0.5110 h1         1 2U3       0.081700
     36 H3           1.5750    -0.8590     1.9670 h1         1 2U3       0.043700
     37 H4           3.0570    -0.0490     1.4420 h1         1 2U3       0.043700
     38 H5           1.7850     1.1560     3.0100 ho         1 2U3       0.391000
     39 H6           3.8510     0.5070    -0.9830 hn         1 2U3       0.358800
     40 H7          -4.8610    -0.5660     0.6780 h4         1 2U3       0.193000
     41 H8          -2.5080     3.6640    -1.9650 hn         1 2U3       0.451800
     42 H9          -2.5150     4.2600    -0.3380 hn         1 2U3       0.451800
     43 H10          2.1030     0.3260    -2.6580 hc         1 2U3       0.043533
     44 H11          1.9040     2.0840    -2.7010 hc         1 2U3       0.043533
     45 H12          0.5290     1.0470    -2.2980 hc         1 2U3       0.043533
     46 H13          2.1080     3.1050     0.3550 hc         1 2U3       0.043533
     47 H14          0.6230     2.1920     0.6580 hc         1 2U3       0.043533
     48 H15          0.8310     3.0620    -0.8680 hc         1 2U3       0.043533
     49 H16         -3.6590    -4.3620     1.8040 h1         1 2U3       0.055700
     50 H17         -3.3770    -4.8220     0.1190 h1         1 2U3       0.055700
     51 H18         -2.3510    -8.9990     2.1350 h4         1 2U3       0.155000
     52 H19         -0.3080    -4.5440     1.6980 ha         1 2U3       0.215000
     53 H20         -4.1940    -8.0490     1.3590 ho         1 2U3       0.418000
     54 H21          0.3150    -9.5430     2.0290 ho         1 2U3       0.410000
     55 N1           3.4360     1.3280    -0.5890 n7         1 2U3      -0.475700
@<TRIPOS>BOND
     1    11    10 1   
     2    10     6 2   
     3    10     9 1   
     4     6     7 1   
     5    31    26 1   
     6    26    27 1   
     7    26    25 1   
     8    27    28 2   
     9    24    25 1   
    10    24    23 1   
    11     9     8 1   
    12    25    30 2   
    13    28    33 1   
    14    28    29 1   
    15    14    23 1   
    16    14    12 2   
    17    30    29 1   
    18     7    12 1   
    19     7     8 2   
    20    29    32 2   
    21    12    13 1   
    22    21    19 1   
    23     4     3 1   
    24     1    13 1   
    25     1     2 1   
    26    13    15 2   
    27    19    18 1   
    28    19    20 1   
    29    19    22 1   
    30    18    55 1   
    31    17     5 1   
    32     3     2 1   
    33     2     5 1   
    34     5    55 1   
    35     5    16 1   
    36     1    34 1   
    37     2    35 1   
    38     3    36 1   
    39     3    37 1   
    40     4    38 1   
    41    55    39 1   
    42     8    40 1   
    43    11    41 1   
    44    11    42 1   
    45    16    43 1   
    46    16    44 1   
    47    16    45 1   
    48    17    46 1   
    49    17    47 1   
    50    17    48 1   
    51    24    49 1   
    52    24    50 1   
    53    27    51 1   
    54    30    52 1   
    55    31    53 1   
    56    33    54 1   
@<TRIPOS>SUBSTRUCTURE
     1 2U3         1 TEMP              0 ****  ****    0 ROOT
