@<TRIPOS>MOLECULE
2U3
   55    56     1     0     0
SMALL
bcc


@<TRIPOS>ATOM
      1 N            0.0000     0.0000     0.0000 ns         1 2U3      -0.189900
      2 CA           1.4650     0.0000     0.0000 c3         1 2U3       0.017700
      3 C            1.9750     0.0000     1.4420 c3         1 2U3       0.202400
      4 O            1.5530     1.1980     2.0970 oh         1 2U3      -0.591800
      5 C2           1.9760     1.2490    -0.7210 c3         1 2U3       0.098200
      6 N3          -2.3120     1.2270    -0.3860 nc         1 2U3      -0.551000
      7 C4          -2.8980     0.1170     0.0640 cc         1 2U3       0.293000
      8 C5          -4.2180     0.2240     0.3100 cd         1 2U3      -0.059400
      9 S6          -4.7180     1.8720    -0.0680 ss         1 2U3      -0.400300
     10 C7          -3.0670     2.2700    -0.5330 cd         1 2U3       0.577300
     11 N8          -2.6420     3.5080    -0.9860 nv         1 2U3      -0.547500
     12 C9          -2.1520    -1.1420     0.2760 ce         1 2U3       0.280300
     13 C10         -0.6740    -1.1560     0.1660 c          1 2U3       0.470800
     14 N11         -2.7940    -2.2400     0.5600 n2         1 2U3      -0.370200
     15 O12         -0.0700    -2.2090     0.2260 o          1 2U3      -0.654100
     16 C13          1.6010     1.1710    -2.2030 c3         1 2U3      -0.024100
     17 C14          1.3380     2.4930    -0.0990 c3         1 2U3      -0.024100
     18 O15          3.9600     2.5140    -1.2680 os         1 2U3      -0.384000
     19 S16          5.4720     2.6630    -1.1740 s6         1 2U3       1.328300
     20 O17          5.7810     3.9460    -1.7010 o          1 2U3      -0.677867
     21 O18          5.8340     2.2540     0.1380 o          1 2U3      -0.677867
     22 O19          6.0860     1.6480    -2.1260 o          1 2U3      -0.677867
     23 O20         -2.0760    -3.4170     0.8820 os         1 2U3      -0.127300
     24 C21         -2.9000    -4.5710     1.0590 c3         1 2U3       0.276600
     25 C22         -2.0520    -5.7290     1.5170 cc         1 2U3      -0.072200
     26 N23         -2.6070    -6.9580     1.6380 na         1 2U3       0.212300
     27 C24         -1.8780    -8.0290     2.0480 cc         1 2U3      -0.193000
     28 C25         -0.5640    -7.8930     2.3490 cd         1 2U3      -0.018100
     29 C26          0.0440    -6.6190     2.2320 c          1 2U3       0.584500
     30 C27         -0.7450    -5.5300     1.7980 cd         1 2U3      -0.242200
     31 O28         -3.9780    -7.1320     1.3300 oh         1 2U3      -0.445300
     32 O29          1.2270    -6.4640     2.4980 o          1 2U3      -0.589100
     33 O30          0.1620    -8.9680     2.7610 oh         1 2U3      -0.460100
     34 H1          -0.5010     0.8570    -0.1300 hn         1 2U3       0.233500
     35 H2           1.8260    -0.8850    -0.5110 h1         1 2U3       0.057700
     36 H3           3.0570    -0.0490     1.4430 h1         1 2U3       0.010200
     37 H4           1.5740    -0.8590     1.9670 h1         1 2U3       0.010200
     38 H5           1.8070     1.1670     3.0040 ho         1 2U3       0.379000
     39 H6           3.8510     0.5070    -0.9830 hn         1 2U3       0.257800
     40 H7          -4.8610    -0.5660     0.6780 h4         1 2U3       0.167000
     41 H8          -2.5010     3.6610    -1.9650 hn         1 2U3       0.281300
     42 H9          -2.5250     4.2630    -0.3390 hn         1 2U3       0.281300
     43 H10          0.5240     1.1060    -2.2990 hc         1 2U3       0.014700
     44 H11          1.9560     2.0580    -2.7130 hc         1 2U3       0.014700
     45 H12          2.0570     0.2930    -2.6450 hc         1 2U3       0.014700
     46 H13          0.6240     2.1920     0.6590 hc         1 2U3       0.014700
     47 H14          0.8290     3.0610    -0.8680 hc         1 2U3       0.014700
     48 H15          2.1080     3.1060     0.3540 hc         1 2U3       0.014700
     49 H16         -3.6590    -4.3620     1.8040 h1         1 2U3       0.011200
     50 H17         -3.3770    -4.8220     0.1190 h1         1 2U3       0.011200
     51 H18         -2.3510    -8.9990     2.1350 h4         1 2U3       0.132000
     52 H19         -0.3080    -4.5440     1.6980 ha         1 2U3       0.181000
     53 H20         -4.1660    -8.0510     1.2370 ho         1 2U3       0.418000
     54 H21         -0.0860    -9.1970     3.6410 ho         1 2U3       0.391000
     55 N1           3.4360     1.3280    -0.5890 n7         1 2U3      -0.279700
@<TRIPOS>BOND
     1     1     2 1   
     2     1    13 1   
     3     1    34 1   
     4     2     3 1   
     5     2     5 1   
     6     2    35 1   
     7     3     4 1   
     8     3    36 1   
     9     3    37 1   
    10     4    38 1   
    11     5    16 1   
    12     5    17 1   
    13     5    55 1   
    14     6     7 1   
    15     6    10 2   
    16     7     8 2   
    17     7    12 1   
    18     8     9 1   
    19     8    40 1   
    20     9    10 1   
    21    10    11 1   
    22    11    41 1   
    23    11    42 1   
    24    12    13 1   
    25    12    14 2   
    26    13    15 2   
    27    14    23 1   
    28    16    43 1   
    29    16    44 1   
    30    16    45 1   
    31    17    46 1   
    32    17    47 1   
    33    17    48 1   
    34    18    19 1   
    35    18    55 1   
    36    19    20 1   
    37    19    21 1   
    38    19    22 1   
    39    23    24 1   
    40    24    25 1   
    41    24    49 1   
    42    24    50 1   
    43    25    26 1   
    44    25    30 2   
    45    26    27 1   
    46    26    31 1   
    47    27    28 2   
    48    27    51 1   
    49    28    29 1   
    50    28    33 1   
    51    29    30 1   
    52    29    32 2   
    53    30    52 1   
    54    31    53 1   
    55    33    54 1   
    56    39    55 1   
@<TRIPOS>SUBSTRUCTURE
     1 2U3         1 TEMP              0 ****  ****    0 ROOT
