@<TRIPOS>MOLECULE
2U7
   66    68     1     0     0
SMALL
bcc


@<TRIPOS>ATOM
      1 C16          0.0000     0.0000     0.0000 ca         1 2U7      -0.094000
      2 C15          1.3830     0.0000     0.0000 ca         1 2U7      -0.034600
      3 Cl2          2.2520    -0.0010    -1.5030 cl         1 2U7      -0.058400
      4 C14          2.0740     0.0000     1.1980 ca         1 2U7      -0.109000
      5 C13          1.3830     0.0010     2.3950 ca         1 2U7      -0.098000
      6 C12         -0.0000     0.0020     2.3940 ca         1 2U7      -0.057000
      7 C6          -0.6910     0.0010     1.1970 ca         1 2U7      -0.068300
      8 C2          -2.1980     0.0090     1.1970 c3         1 2U7       0.218400
      9 O1          -2.6820    -0.7490     2.3120 os         1 2U7      -0.355600
     10 C3          -4.0980    -0.9460     2.2820 c3         1 2U7       0.141100
     11 C22         -4.5590    -1.5320     3.6180 c3         1 2U7      -0.130400
     12 C23         -3.9690    -2.9060     3.7960 c          1 2U7       0.980600
     13 O4          -4.2390    -3.6150     4.9030 o          1 2U7      -0.899300
     14 O3          -3.2520    -3.3710     2.9400 o          1 2U7      -0.899300
     15 C4          -4.7900     0.3670     2.0450 c          1 2U7       0.617500
     16 O2          -5.9780     0.4520     2.2750 o          1 2U7      -0.672500
     17 N1          -4.1410     1.4470     1.5900 n          1 2U7      -0.170800
     18 C17         -4.9020     2.6750     1.3480 c3         1 2U7       0.075700
     19 C19         -3.9880     3.8870     1.5370 c3         1 2U7      -0.112400
     20 C21         -3.4470     3.8990     2.9700 c3         1 2U7      -0.001100
     21 C18         -5.4450     2.6650    -0.0830 c3         1 2U7      -0.111600
     22 S1          -6.6710     1.3390    -0.2550 s6         1 2U7       0.812000
     23 O5          -6.0230     0.0930    -0.0370 o          1 2U7      -0.564300
     24 O6          -7.8120     1.6730     0.5230 o          1 2U7      -0.564300
     25 C20         -7.1120     1.4620    -2.0100 c3         1 2U7      -0.055200
     26 C25         -5.8640     1.2410    -2.8660 c3         1 2U7       0.023233
     27 C26         -8.1580     0.3980    -2.3490 c3         1 2U7       0.023233
     28 C24         -7.6860     2.8520    -2.2950 c3         1 2U7       0.023233
     29 C1          -2.7050     1.4460     1.3250 c3         1 2U7       0.048000
     30 C5          -2.4320     2.1890     0.0420 ca         1 2U7      -0.078300
     31 C7          -3.0420     1.7870    -1.1310 ca         1 2U7      -0.094000
     32 C8          -2.7920     2.4680    -2.3080 ca         1 2U7      -0.108500
     33 C9          -1.9310     3.5520    -2.3110 ca         1 2U7      -0.033600
     34 Cl1         -1.6170     4.4070    -3.7880 cl         1 2U7      -0.039400
     35 C10         -1.3210     3.9530    -1.1350 ca         1 2U7      -0.108500
     36 C11         -1.5760     3.2750     0.0420 ca         1 2U7      -0.094000
     37 H1          -0.5420    -0.0010    -0.9380 ha         1 2U7       0.115000
     38 H2           3.1580    -0.0000     1.1990 ha         1 2U7       0.105000
     39 H3           1.9240     0.0020     3.3330 ha         1 2U7       0.103000
     40 H4          -0.5420     0.0030     3.3320 ha         1 2U7       0.133000
     41 H5          -2.5690    -0.4260     0.2760 h1         1 2U7       0.030700
     42 H6          -4.3460    -1.6310     1.4790 h1         1 2U7       0.066700
     43 H7          -5.6410    -1.5990     3.6280 hc         1 2U7       0.028200
     44 H8          -4.2300    -0.8900     4.4260 hc         1 2U7       0.028200
     45 H10         -5.7280     2.7330     2.0470 h1         1 2U7       0.076700
     46 H11         -4.5490     4.7950     1.3550 hc         1 2U7       0.039700
     47 H12         -3.1610     3.8280     0.8400 hc         1 2U7       0.039700
     48 H13         -2.3760     3.7390     2.9540 hc         1 2U7       0.007700
     49 H14         -3.9210     3.1100     3.5410 hc         1 2U7       0.007700
     50 H15         -3.6630     4.8560     3.4290 hc         1 2U7       0.007700
     51 H16         -4.6310     2.4970    -0.7770 h1         1 2U7       0.091200
     52 H17         -5.9120     3.6190    -0.2980 h1         1 2U7       0.091200
     53 H18         -5.2180     0.5180    -2.3830 hc         1 2U7       0.014033
     54 H19         -5.3340     2.1790    -2.9800 hc         1 2U7       0.014033
     55 H20         -6.1560     0.8700    -3.8410 hc         1 2U7       0.014033
     56 H21         -8.4260     0.4760    -3.3960 hc         1 2U7       0.014033
     57 H22         -7.7500    -0.5860    -2.1520 hc         1 2U7       0.014033
     58 H23         -9.0400     0.5520    -1.7390 hc         1 2U7       0.014033
     59 H24         -7.9180     2.9370    -3.3500 hc         1 2U7       0.014033
     60 H25         -8.5890     2.9950    -1.7140 hc         1 2U7       0.014033
     61 H26         -6.9580     3.6060    -2.0230 hc         1 2U7       0.014033
     62 H27         -2.1910     1.9340     2.1450 h1         1 2U7       0.048700
     63 H28         -3.7160     0.9390    -1.1290 ha         1 2U7       0.133500
     64 H29         -3.2690     2.1540    -3.2280 ha         1 2U7       0.116500
     65 H30         -0.6490     4.8030    -1.1360 ha         1 2U7       0.116500
     66 H31         -1.0990     3.5890     0.9620 ha         1 2U7       0.133500
@<TRIPOS>BOND
     1     1     2 ar  
     2     1     7 ar  
     3     1    37 1   
     4     2     3 1   
     5     2     4 ar  
     6     4     5 ar  
     7     4    38 1   
     8     5     6 ar  
     9     5    39 1   
    10     6     7 ar  
    11     6    40 1   
    12     7     8 1   
    13     8     9 1   
    14     8    29 1   
    15     8    41 1   
    16     9    10 1   
    17    10    11 1   
    18    10    15 1   
    19    10    42 1   
    20    11    12 1   
    21    11    43 1   
    22    11    44 1   
    23    12    13 1   
    24    12    14 1   
    25    15    16 2   
    26    15    17 1   
    27    17    18 1   
    28    17    29 1   
    29    18    19 1   
    30    18    21 1   
    31    18    45 1   
    32    19    20 1   
    33    19    46 1   
    34    19    47 1   
    35    20    48 1   
    36    20    49 1   
    37    20    50 1   
    38    21    22 1   
    39    21    51 1   
    40    21    52 1   
    41    22    23 2   
    42    22    24 2   
    43    22    25 1   
    44    25    26 1   
    45    25    27 1   
    46    25    28 1   
    47    26    53 1   
    48    26    54 1   
    49    26    55 1   
    50    27    56 1   
    51    27    57 1   
    52    27    58 1   
    53    28    59 1   
    54    28    60 1   
    55    28    61 1   
    56    29    30 1   
    57    29    62 1   
    58    30    31 ar  
    59    30    36 ar  
    60    31    32 ar  
    61    31    63 1   
    62    32    33 ar  
    63    32    64 1   
    64    33    34 1   
    65    33    35 ar  
    66    35    36 ar  
    67    35    65 1   
    68    36    66 1   
@<TRIPOS>SUBSTRUCTURE
     1 2U7         1 TEMP              0 ****  ****    0 ROOT
