@<TRIPOS>MOLECULE
2U8
   46    47     1     0     0
SMALL
bcc


@<TRIPOS>ATOM
      1 C1         -0.4600    1.5820    0.7790 ca        1 2U8      0.022000
      2 N1          0.2250   -3.8670   -4.0460 n         1 2U8     -0.408800
      3 O1          0.2920    2.1890   -4.1900 oh        1 2U8     -0.594800
      4 C2         -0.4800    2.9560    1.0710 ca        1 2U8     -0.111000
      5 O2         -1.1700   -5.3890   -2.9240 o         1 2U8     -0.591000
      6 C3         -0.3410    0.6530    1.8250 ca        1 2U8     -0.106000
      7 O3         -1.0270   -5.5290   -5.1600 os        1 2U8     -0.436900
      8 C4         -0.5590    1.1380   -0.5520 cg        1 2U8     -0.099000
      9 C5         -0.3830    3.3860    2.3920 ca        1 2U8     -0.129000
     10 C6         -0.2640    2.4610    3.4270 ca        1 2U8     -0.120000
     11 C7         -0.2420    1.0890    3.1490 ca        1 2U8     -0.078300
     12 C8         -0.1020    0.1050    4.2480 c3        1 2U8     -0.055800
     13 C9         -0.6430    0.7600   -1.6880 ch        1 2U8     -0.156300
     14 C10        -0.7470    0.3250   -3.0220 cf        1 2U8     -0.029900
     15 C11        -0.8830    1.4130   -4.0520 c3        1 2U8      0.173600
     16 C12         0.8800   -4.0030   -6.5560 cx        1 2U8     -0.140900
     17 C13        -0.2910   -3.0660   -6.4760 cx        1 2U8     -0.140900
     18 C14         0.6130   -3.2470   -5.2720 cx        1 2U8      0.042700
     19 C15        -0.7450   -0.9720   -3.3840 c2        1 2U8     -0.116200
     20 C16        -0.6640   -2.1120   -2.4460 c3        1 2U8     -0.089200
     21 C17         0.4310   -3.1150   -2.8210 c3        1 2U8      0.101000
     22 C19        -1.8610   -6.6840   -5.0280 c3        1 2U8      0.135700
     23 H1         -1.7480    2.0790   -3.7790 h1        1 2U8      0.052700
     24 H2         -0.5750    3.6890    0.2560 ha        1 2U8      0.138000
     25 H3         -0.3270   -0.4230    1.5990 ha        1 2U8      0.139000
     26 H4         -0.4000    4.4620    2.6190 ha        1 2U8      0.135000
     27 H5         -0.1890    2.8070    4.4690 ha        1 2U8      0.134000
     28 H6         -0.5870   -0.8660    3.9820 hc        1 2U8      0.046367
     29 H7          0.9820   -0.0890    4.4500 hc        1 2U8      0.046367
     30 H8         -0.5690    0.4880    5.1890 hc        1 2U8      0.046367
     31 H9          0.5390    2.4970   -3.3090 ho        1 2U8      0.406000
     32 H10        -1.0540    0.9830   -5.0770 h1        1 2U8      0.052700
     33 H11         1.7710   -3.7120   -7.1420 hc        1 2U8      0.080950
     34 H12         0.6850   -5.0890   -6.6090 hc        1 2U8      0.080950
     35 H13        -1.3060   -3.5030   -6.4650 hc        1 2U8      0.080950
     36 H14        -0.2570   -2.1000   -7.0100 hc        1 2U8      0.080950
     37 H15         1.3100   -2.4030   -5.0510 h1        1 2U8      0.095700
     38 H16        -0.8210   -1.2410   -4.4530 ha        1 2U8      0.136000
     39 H17        -1.6590   -2.6370   -2.4210 hc        1 2U8      0.072700
     40 H18        -0.4490   -1.7560   -1.4020 hc        1 2U8      0.072700
     41 H19         0.5100   -3.8640   -1.9790 h1        1 2U8      0.070700
     42 H20         1.4160   -2.5750   -2.9090 h1        1 2U8      0.070700
     43 H21        -2.0010   -7.0170   -6.0860 h1        1 2U8      0.052700
     44 H22        -2.8310   -6.4020   -4.5530 h1        1 2U8      0.052700
     45 H23        -1.3450   -7.4610   -4.4150 h1        1 2U8      0.052700
     46 C18        -0.6820   -4.9190   -3.9680 c         1 2U8      0.731100
@<TRIPOS>BOND
     1    1    4 ar  
     2    1    6 ar  
     3    1    8 1   
     4    2   18 1   
     5    2   21 1   
     6    2   46 1   
     7    3   15 1   
     8    3   31 1   
     9    4    9 ar  
    10    4   24 1   
    11    5   46 2   
    12    6   11 ar  
    13    6   25 1   
    14    7   22 1   
    15    7   46 1   
    16    8   13 3   
    17    9   10 ar  
    18    9   26 1   
    19   10   11 ar  
    20   10   27 1   
    21   11   12 1   
    22   12   28 1   
    23   12   29 1   
    24   12   30 1   
    25   13   14 1   
    26   14   15 1   
    27   14   19 2   
    28   15   23 1   
    29   15   32 1   
    30   16   17 1   
    31   16   18 1   
    32   16   33 1   
    33   16   34 1   
    34   17   18 1   
    35   17   35 1   
    36   17   36 1   
    37   18   37 1   
    38   19   20 1   
    39   19   38 1   
    40   20   21 1   
    41   20   39 1   
    42   20   40 1   
    43   21   41 1   
    44   21   42 1   
    45   22   43 1   
    46   22   44 1   
    47   22   45 1   
@<TRIPOS>SUBSTRUCTURE
     1 2U8         1 TEMP              0 ****  ****    0 ROOT
