@<TRIPOS>MOLECULE
molecule
   46    48     1     0     0
SMALL
bcc


@<TRIPOS>ATOM
      1 C1           0.0000     0.0000     0.0000 ca         1 2U8      -0.017000
      2 N1          -3.8020     0.0020    -1.8830 n          1 2U8      -0.292800
      3 O1          -1.7520    -0.6340    -4.5310 oh         1 2U8       0.362200
      4 C2           1.3960     0.0000     0.0000 ca         1 2U8      -0.129000
      5 O2          -4.7310    -0.4680     0.0990 o          1 2U8      -0.715000
      6 C3          -0.6920     0.0060     1.2120 ca         1 2U8      -0.127000
      7 O3          -4.4810    -2.0700    -1.0160 os         1 2U8      -0.586900
      8 C4          -0.7180     0.0010    -1.2390 cg         1 2U8      -0.266000
      9 C5           2.0820     0.0000     1.1970 ca         1 2U8      -0.109000
     10 C6           1.3900    -0.0000     2.3950 ca         1 2U8      -0.120000
     11 C7           0.0060     0.0120     2.4010 ca         1 2U8      -0.048300
     12 C8          -0.7390     0.0120     3.7110 c3         1 2U8      -0.057800
     13 C9          -1.2890     0.0020    -2.2640 c1         1 2U8      -0.097100
     14 C10         -1.4650     0.4730    -3.8780 c3         1 2U8      -0.268100
     15 C11         -1.5740    -0.7440    -4.6510 c3         1 2U8       0.105600
     16 C12         -3.3120    -2.0170    -4.0300 c3         1 2U8      -0.282400
     17 C13         -4.3900    -1.2220    -3.9660 c3         1 2U8      -0.157400
     18 C14         -3.9150     0.0020    -2.8770 c3         1 2U8       0.166700
     19 C15         -2.8570     1.2140    -3.7540 c3         1 2U8      -0.177700
     20 C16         -2.8120     2.2570    -2.8190 c3         1 2U8      -0.025400
     21 C17         -2.6570     1.1700    -1.6170 c3         1 2U8      -0.032000
     22 C19         -4.7830    -3.2070     0.0160 c3         1 2U8       0.278700
     23 H1          -2.2140    -0.3260    -5.2930 ho         1 2U8       0.187000
     24 H2           1.5370    -0.3590    -1.0120 ha         1 2U8       0.155000
     25 H3          -1.7010     0.1760     0.8560 ha         1 2U8       0.153000
     26 H4           3.1450    -0.2070     1.1740 ha         1 2U8       0.132000
     27 H5           1.9330     0.2160     3.3070 ha         1 2U8       0.135000
     28 H6          -0.6640     0.9290     4.2830 hc         1 2U8       0.044700
     29 H7          -0.4580    -0.8850     4.2480 hc         1 2U8       0.044700
     30 H8          -1.7780    -0.2770     3.6080 hc         1 2U8       0.044700
     31 H9          -2.2180    -0.4460    -5.4700 hc         1 2U8       0.032200
     32 H10         -1.9220    -1.6620    -4.1920 hc         1 2U8       0.032200
     33 H11         -3.5360    -2.9550    -4.5230 hc         1 2U8       0.034700
     34 H12         -3.1950    -2.4520    -3.0450 hc         1 2U8       0.034700
     35 H13         -4.8420    -0.7890    -4.8500 hc         1 2U8       0.055200
     36 H14         -5.2780    -1.6150    -3.4850 hc         1 2U8       0.055200
     37 H15         -4.8100     0.5560    -3.1300 h1         1 2U8      -0.127300
     38 H16         -3.3350     1.4510    -4.6970 hc         1 2U8       0.073700
     39 H17         -1.7740     2.5350    -2.6870 hc         1 2U8       0.088200
     40 H18         -3.4090     3.1600    -2.8780 hc         1 2U8       0.088200
     41 H19         -3.1180     1.8750    -0.9360 h1         1 2U8       0.141200
     42 H20         -1.8680     0.7300    -1.0180 h1         1 2U8       0.141200
     43 H21         -4.8060    -2.4640     0.8040 h1         1 2U8       0.085700
     44 H22         -4.0190    -3.9570    -0.1480 h1         1 2U8       0.085700
     45 H23         -5.7450    -3.3940    -0.4460 h1         1 2U8       0.085700
     46 C18         -4.3770    -0.8710    -1.0900 c          1 2U8       0.794100
@<TRIPOS>BOND
     1    12    11 1
     2    11    10 ar
     3    11     6 ar
     4    10     9 ar
     5     6     1 ar
     6     9     4 ar
     7     1     4 ar
     8     1     8 1
     9     8    13 3
    10    16    15 1
    11    16    17 1
    12    13    14 1
    13    15    14 1
    14    17    18 1
    15    14     3 1
    16    14    19 1
    17    18    19 1
    18    18     2 1
    19    19    20 1
    20     5    46 2
    21     2    46 1
    22     2    21 1
    23    20    21 1
    24    46     7 1
    25     7    22 1
    26     3    23 1
    27     4    24 1
    28     6    25 1
    29     9    26 1
    30    10    27 1
    31    12    28 1
    32    12    29 1
    33    12    30 1
    34    15    31 1
    35    15    32 1
    36    16    33 1
    37    16    34 1
    38    17    35 1
    39    17    36 1
    40    18    37 1
    41    19    38 1
    42    20    39 1
    43    20    40 1
    44    21    41 1
    45    21    42 1
    46    22    43 1
    47    22    44 1
    48    22    45 1
@<TRIPOS>SUBSTRUCTURE
     1 2U8         1 TEMP              0 ****  ****    0 ROOT
