@<TRIPOS>MOLECULE
2U9
   42    44     1     0     0
SMALL
bcc


@<TRIPOS>ATOM
      1 C1           0.0000     0.0000     0.0000 ca         1 2U9      -0.128300
      2 C2           1.3830     0.0000     0.0000 ca         1 2U9      -0.057500
      3 C3           2.0760     0.0000     1.1960 ca         1 2U9      -0.171000
      4 C7           1.2820    -0.0010     4.7720 c3         1 2U9       0.197100
      5 C8           2.2000    -0.0010     5.9670 cc         1 2U9       0.400700
      6 C9           3.4450     0.8490     7.5990 cd         1 2U9       0.243800
      7 C10          3.6590    -0.4580     7.8690 cc         1 2U9      -0.050400
      8 C11          4.0450     1.9420     8.3830 c          1 2U9       0.515600
      9 C12          4.3850     4.3120     8.8370 c3         1 2U9       0.034700
     10 C13          4.4870     5.5830     7.9750 c3         1 2U9      -0.014400
     11 C14          4.7910     6.7810     8.8960 c3         1 2U9      -0.001600
     12 C15          3.4750     4.6650    10.0410 c3         1 2U9      -0.022600
     13 S1           4.0690     6.3320    10.5150 s6         1 2U9       0.778000
     14 O2           5.1090     6.2040    11.4760 o          1 2U9      -0.574300
     15 N1           3.7890     3.2250     8.0570 ns         1 2U9      -0.172900
     16 O1           4.7710     1.6880     9.3240 o          1 2U9      -0.646100
     17 N            2.6410     1.0570     6.5520 nd         1 2U9      -0.537000
     18 S            2.7930    -1.4040     6.7400 ss         1 2U9      -0.225300
     19 C4           1.3830    -0.0010     2.3970 ca         1 2U9       0.142100
     20 C5          -0.0050    -0.0010     2.3950 ca         1 2U9      -0.171000
     21 C6          -0.6930    -0.0010     1.1960 ca         1 2U9      -0.057500
     22 C           -0.7530     0.0060    -1.3050 c3         1 2U9       0.070200
     23 H1           1.9240     0.0010    -0.9390 ha         1 2U9       0.105500
     24 H2           3.1590    -0.0000     1.1950 ha         1 2U9       0.117000
     25 H3           0.6560     0.8830     4.7970 h1         1 2U9       0.017200
     26 H4           0.6580    -0.8860     4.7960 h1         1 2U9       0.017200
     27 H5           4.2760    -0.8420     8.6720 h4         1 2U9       0.180000
     28 H6           5.3680     4.0260     9.1900 h1         1 2U9       0.071700
     29 H7           3.5480     5.7500     7.4610 hc         1 2U9       0.028200
     30 H8           5.2870     5.4680     7.2530 hc         1 2U9       0.028200
     31 H9           4.3210     7.6780     8.5120 h1         1 2U9       0.077700
     32 H10          5.8610     6.9200     8.9890 h1         1 2U9       0.077700
     33 H11          2.4350     4.7010     9.7370 h1         1 2U9       0.085200
     34 H12          3.6220     3.9610    10.8510 h1         1 2U9       0.085200
     35 H13          3.2070     3.4340     7.2690 hn         1 2U9       0.193500
     36 H14         -0.5480    -0.0020     3.3320 ha         1 2U9       0.117000
     37 H15         -1.7760    -0.0010     1.1950 ha         1 2U9       0.105500
     38 H16         -0.0770     0.2660    -2.1110 hc         1 2U9       0.006033
     39 H17         -1.5530     0.7340    -1.2570 hc         1 2U9       0.006033
     40 H18         -1.1690    -0.9780    -1.4860 hc         1 2U9       0.006033
     41 O            2.0610    -0.0000     3.5740 os         1 2U9      -0.301900
     42 O3           2.9540     7.1700    10.7860 o          1 2U9      -0.574300
@<TRIPOS>BOND
     1     1     2 ar  
     2     1    21 ar  
     3     1    22 1   
     4     2     3 ar  
     5     2    23 1   
     6     3    19 ar  
     7     3    24 1   
     8     4     5 1   
     9     4    25 1   
    10     4    26 1   
    11     4    41 1   
    12     5    17 2   
    13     5    18 1   
    14     6     7 2   
    15     6     8 1   
    16     6    17 1   
    17     7    18 1   
    18     7    27 1   
    19     8    15 1   
    20     8    16 2   
    21     9    10 1   
    22     9    12 1   
    23     9    15 1   
    24     9    28 1   
    25    10    11 1   
    26    10    29 1   
    27    10    30 1   
    28    11    13 1   
    29    11    31 1   
    30    11    32 1   
    31    12    13 1   
    32    12    33 1   
    33    12    34 1   
    34    13    14 2   
    35    13    42 2   
    36    15    35 1   
    37    19    20 ar  
    38    19    41 1   
    39    20    21 ar  
    40    20    36 1   
    41    21    37 1   
    42    22    38 1   
    43    22    39 1   
    44    22    40 1   
@<TRIPOS>SUBSTRUCTURE
     1 2U9         1 TEMP              0 ****  ****    0 ROOT
