@<TRIPOS>MOLECULE
molecule
   19    19     1     0     0
SMALL
bcc


@<TRIPOS>ATOM
      1 OAL          0.0000     0.0000     0.0000 o          1 2UB      -0.793800
      2 CAJ          1.2160     0.0000     0.0000 c          1 2UB       0.844800
      3 OAM          1.8900     0.0000     1.1680 o          1 2UB      -0.793800
      4 CAI          1.9510    -0.0080    -1.2730 ce         1 2UB       0.143400
      5 SAK          3.7030     0.1770    -1.2790 sh         1 2UB      -0.319400
      6 CAG          1.2810    -0.1560    -2.4400 cf         1 2UB      -0.451200
      7 CAE         -0.1370    -0.5450    -2.4310 ca         1 2UB      -0.034800
      8 CAD         -1.0490     0.1020    -3.2710 ca         1 2UB      -0.060500
      9 CAC         -2.3770    -0.2680    -3.2560 ca         1 2UB      -0.161500
     10 CAB         -2.8090    -1.2780    -2.4120 ca         1 2UB       0.032400
     11 Cl          -4.4830    -1.7380    -2.4010 cl         1 2UB      -0.163400
     12 CAA         -1.9110    -1.9230    -1.5770 ca         1 2UB      -0.161500
     13 CAF         -0.5790    -1.5680    -1.5850 ca         1 2UB      -0.060500
     14 H2           0.5190     0.6080    -2.3420 ha         1 2UB       0.294000
     15 H4          -0.6990     0.8330    -3.9900 ha         1 2UB       0.133000
     16 H5          -3.0850     0.2320    -3.9060 ha         1 2UB       0.125500
     17 H6          -2.2550    -2.7130    -0.9200 ha         1 2UB       0.125500
     18 H7          -0.0450    -2.4440    -1.2380 ha         1 2UB       0.133000
     19 H8           4.0410     1.1680    -2.0950 hs         1 2UB       0.168800
@<TRIPOS>BOND
     1    11    10 1   
     2    12    10 ar  
     3    12    13 ar  
     4    10     9 ar  
     5    13     7 ar  
     6     9     8 ar  
     7     7     8 ar  
     8     7     6 1   
     9     6     4 2   
    10     1     2 1   
    11     4     2 1   
    12     4     5 1   
    13     2     3 1   
    14     6    14 1   
    15     8    15 1   
    16     9    16 1   
    17    12    17 1   
    18    13    18 1   
    19     5    19 1   
@<TRIPOS>SUBSTRUCTURE
     1 2UB         1 TEMP              0 ****  ****    0 ROOT
