@<TRIPOS>MOLECULE
2UB
   19    19     1     0     0
SMALL
bcc


@<TRIPOS>ATOM
      1 OAL         1.1080   -0.4050    0.9060 o         1 2UB     -0.811300
      2 CAJ         1.8910   -0.6150   -0.0610 c         1 2UB      0.899800
      3 OAM         2.7640   -1.5260   -0.0860 o         1 2UB     -0.811300
      4 CAI         1.8430    0.3320   -1.2530 ce        1 2UB      0.030400
      5 SAK         3.2160    1.3470   -1.4110 sh        1 2UB     -0.385400
      6 CAG         0.8880    0.4560   -2.1880 cf        1 2UB     -0.179200
      7 CAE        -0.3680   -0.2540   -2.3160 ca        1 2UB      0.010200
      8 CAD        -0.9490   -0.3520   -3.5960 ca        1 2UB     -0.128500
      9 CAC        -2.1650   -0.9980   -3.7870 ca        1 2UB     -0.134000
     10 CAB        -2.8240   -1.5560   -2.6890 ca        1 2UB     -0.005600
     11 CL         -4.3230   -2.3470   -2.9160 cl        1 2UB     -0.150400
     12 CAA        -2.2680   -1.4700   -1.4110 ca        1 2UB     -0.134000
     13 CAF        -1.0490   -0.8210   -1.2270 ca        1 2UB     -0.128500
     14 H2          1.0580    1.1820   -3.0090 ha        1 2UB      0.102000
     15 H4         -0.4280    0.0850   -4.4610 ha        1 2UB      0.166000
     16 H5         -2.6010   -1.0690   -4.7930 ha        1 2UB      0.130000
     17 H6         -2.7850   -1.9130   -0.5470 ha        1 2UB      0.130000
     18 H7         -0.6050   -0.7530   -0.2130 ha        1 2UB      0.166000
     19 H8          3.9990    0.7740   -0.4990 hs        1 2UB      0.235800
@<TRIPOS>BOND
     1    1    2 1   
     2    2    3 1   
     3    2    4 1   
     4    4    5 1   
     5    4    6 2   
     6    5   19 1   
     7    6    7 1   
     8    6   14 1   
     9    7    8 ar  
    10    7   13 ar  
    11    8    9 ar  
    12    8   15 1   
    13    9   10 ar  
    14    9   16 1   
    15   10   11 1   
    16   10   12 ar  
    17   12   13 ar  
    18   12   17 1   
    19   13   18 1   
@<TRIPOS>SUBSTRUCTURE
     1 2UB         1 TEMP              0 ****  ****    0 ROOT
