@<TRIPOS>MOLECULE
molecule
   28    28     1     0     0
SMALL
bcc


@<TRIPOS>ATOM
      1 C8           0.0000     0.0000     0.0000 ca         1 2UC      -0.152300
      2 C5           1.3830     0.0000     0.0000 ca         1 2UC      -0.100000
      3 C6           0.0000     0.0050     2.3940 ca         1 2UC      -0.119000
      4 N1          -0.9960    -1.3820    -1.7290 nu         1 2UC      -0.852200
      5 C2           4.0830    -1.4210     1.1970 c          1 2UC       0.567900
      6 N2          -2.0950    -0.6420    -3.6330 n2         1 2UC      -0.783100
      7 N3          -1.9000    -2.9290    -3.2970 nz         1 2UC      -0.807600
      8 C4           1.3820    -0.0010     2.3950 ca         1 2UC      -0.094000
      9 O1           4.8500    -1.7900     0.3400 o          1 2UC      -0.507100
     10 C3           2.0730     0.0000     1.1970 ca         1 2UC      -0.079300
     11 C7          -0.6910     0.0040     1.1970 ca         1 2UC      -0.105000
     12 C9          -0.7530    -0.0000    -1.3050 c3         1 2UC       0.302100
     13 C10         -1.6720    -1.6330    -2.9000 c2         1 2UC       0.686100
     14 H1           1.9250    -0.0010    -0.9380 ha         1 2UC       0.141000
     15 H2          -0.5420     0.0060     3.3320 ha         1 2UC       0.150000
     16 H3          -0.6520    -2.1420    -1.1770 hn         1 2UC       0.456800
     17 H4           3.8080    -2.0910     2.0030 h4         1 2UC       0.003200
     18 H5          -2.5870    -0.8240    -4.4860 hn         1 2UC       0.438400
     19 H6          -1.0490    -3.3270    -3.6410 hn         1 2UC       0.466467
     20 H7          -2.5900    -2.9400    -4.0220 hn         1 2UC       0.466467
     21 H8           1.9230    -0.0010     3.3330 ha         1 2UC       0.149000
     22 H9           3.9420     0.5110     0.3130 hc         1 2UC       0.085700
     23 H10          3.9420     0.5100     2.0820 hc         1 2UC       0.085700
     24 H11         -1.7740     0.0070     1.1970 ha         1 2UC       0.137000
     25 H12         -1.7000     0.5090    -1.1760 h1         1 2UC       0.079200
     26 H13         -0.1680     0.5110    -2.0600 h1         1 2UC       0.079200
     27 C1           3.5810    -0.0000     1.1970 c3         1 2UC      -0.161100
     28 H33         -2.1500    -3.4830    -2.5020 hn         1 2UC       0.466467
@<TRIPOS>BOND
     1     8     3 ar
     2     8    10 ar
     3     3    11 ar
     4    27    10 1
     5    27     5 1
     6    10     2 ar
     7    11     1 ar
     8     9     5 2
     9     2     1 ar
    10     1    12 1
    11    12     4 1
    12     4    13 1
    13    13     6 2
    14    13     7 1
    15     2    14 1
    16     3    15 1
    17     4    16 1
    18     5    17 1
    19     6    18 1
    20     7    19 1
    21     7    20 1
    22     8    21 1
    23    27    22 1
    24    27    23 1
    25    11    24 1
    26    12    25 1
    27    12    26 1
    28    28     7 1
@<TRIPOS>SUBSTRUCTURE
     1 2UC         1 TEMP              0 ****  ****    0 ROOT
