@<TRIPOS>MOLECULE
2UC
   28    28     1     0     0
SMALL
bcc


@<TRIPOS>ATOM
      1 C8           0.0000     0.0000     0.0000 ca         1 2UC      -0.161300
      2 C5           1.3830     0.0000     0.0000 ca         1 2UC      -0.071000
      3 C6           0.0000     0.0050     2.3940 ca         1 2UC      -0.084000
      4 N1          -0.9960    -1.3820    -1.7290 nu         1 2UC      -0.487200
      5 C2           4.0830    -1.4210     1.1970 c          1 2UC       0.650900
      6 N2          -2.0950    -0.6420    -3.6330 n2         1 2UC      -0.628100
      7 N3          -1.9000    -2.9290    -3.2970 nz         1 2UC       0.198400
      8 C4           1.3820    -0.0010     2.3950 ca         1 2UC      -0.061000
      9 O1           4.8500    -1.7900     0.3400 o          1 2UC      -0.539100
     10 C3           2.0730     0.0000     1.1970 ca         1 2UC      -0.078300
     11 C7          -0.6910     0.0040     1.1970 ca         1 2UC      -0.077000
     12 C9          -0.7530    -0.0000    -1.3050 c3         1 2UC       0.239100
     13 C10         -1.6720    -1.6330    -2.9000 c2         1 2UC       0.242100
     14 H1           1.9250    -0.0010    -0.9380 ha         1 2UC       0.115000
     15 H2          -0.5420     0.0060     3.3320 ha         1 2UC       0.120000
     16 H3          -0.6590    -2.1430    -1.1730 hn         1 2UC       0.309800
     17 H4           3.8080    -2.0920     2.0030 h4         1 2UC      -0.034800
     18 H5          -1.9300     0.3020    -3.3450 hn         1 2UC       0.385400
     19 H6          -2.4340    -3.4040    -2.5960 hn         1 2UC       0.222133
     20 H7          -2.4070    -2.9300    -4.1600 hn         1 2UC       0.222133
     21 H8           1.9230    -0.0010     3.3330 ha         1 2UC       0.120000
     22 H9           3.9420     0.5110     0.3130 hc         1 2UC       0.050700
     23 H10          3.9420     0.5100     2.0820 hc         1 2UC       0.050700
     24 H11         -1.7740     0.0070     1.1970 ha         1 2UC       0.108000
     25 H12         -0.1680     0.5110    -2.0600 h1         1 2UC       0.033700
     26 H13         -1.7000     0.5090    -1.1760 h1         1 2UC       0.033700
     27 C1           3.5810    -0.0000     1.1970 c3         1 2UC      -0.102100
     28 H33         -1.0300    -3.4210    -3.3470 hn         1 2UC       0.222133
@<TRIPOS>BOND
     1     1     2 ar  
     2     1    11 ar  
     3     1    12 1   
     4     2    10 ar  
     5     2    14 1   
     6     3     8 ar  
     7     3    11 ar  
     8     3    15 1   
     9     4    12 1   
    10     4    13 1   
    11     4    16 1   
    12     5     9 2   
    13     5    17 1   
    14     5    27 1   
    15     6    13 2   
    16     6    18 1   
    17     7    13 1   
    18     7    19 1   
    19     7    20 1   
    20     7    28 1   
    21     8    10 ar  
    22     8    21 1   
    23    10    27 1   
    24    11    24 1   
    25    12    25 1   
    26    12    26 1   
    27    22    27 1   
    28    23    27 1   
@<TRIPOS>SUBSTRUCTURE
     1 2UC         1 TEMP              0 ****  ****    0 ROOT
