@<TRIPOS>MOLECULE
2UD
   23    24     1     0     0
SMALL
bcc


@<TRIPOS>ATOM
      1 OAN        -0.5090    0.4850   -0.2710 o         1 2UD     -0.801800
      2 CAM         0.7380    0.4430   -0.1130 c         1 2UD      0.879600
      3 OAO         1.3500    0.0470    0.9120 o         1 2UD     -0.801800
      4 CAK         1.6060    0.8580   -1.3240 c         1 2UD      0.203400
      5 SAL         2.1000    2.3080   -1.5630 s         1 2UD     -0.445400
      6 CAJ         1.8520   -0.3490   -2.1580 c3        1 2UD     -0.080200
      7 CAI         2.6610   -0.2410   -3.3790 cc        1 2UD     -0.118400
      8 CAE         2.9680   -1.3670   -4.2450 ca        1 2UD     -0.093800
      9 CAF         2.6490   -2.7220   -4.2150 ca        1 2UD     -0.046000
     10 CAA         3.1210   -3.5450   -5.2340 ca        1 2UD     -0.062900
     11 BR          2.7060   -5.3770   -5.2200 br        1 2UD     -0.127100
     12 CAB         3.9080   -3.0350   -6.2840 ca        1 2UD     -0.102000
     13 CAC         4.2450   -1.6920   -6.3470 ca        1 2UD     -0.157000
     14 CAD         3.7780   -0.8470   -5.3290 ca        1 2UD     -0.042200
     15 NAG         3.9450    0.5190   -5.1200 na        1 2UD     -0.202400
     16 CAH         3.2710    0.8770   -3.9440 cd        1 2UD     -0.094100
     17 H2          0.8340   -0.7600   -2.4350 hc        1 2UD      0.089700
     18 H3          2.3280   -1.1180   -1.4770 hc        1 2UD      0.089700
     19 H4          2.0330   -3.1160   -3.3920 ha        1 2UD      0.154000
     20 H5          4.2650   -3.7130   -7.0740 ha        1 2UD      0.130000
     21 H6          4.8590   -1.3040   -7.1690 ha        1 2UD      0.124000
     22 H7          4.4580    1.1270   -5.6970 hn        1 2UD      0.289700
     23 H8          3.2600    1.9120   -3.5670 h4        1 2UD      0.217000
@<TRIPOS>BOND
     1    1    2 1   
     2    2    3 1   
     3    2    4 1   
     4    4    5 2   
     5    4    6 1   
     6    6    7 1   
     7    6   17 1   
     8    6   18 1   
     9    7    8 1   
    10    7   16 2   
    11    8    9 ar  
    12    8   14 ar  
    13    9   10 ar  
    14    9   19 1   
    15   10   11 1   
    16   10   12 ar  
    17   12   13 ar  
    18   12   20 1   
    19   13   14 ar  
    20   13   21 1   
    21   14   15 1   
    22   15   16 1   
    23   15   22 1   
    24   16   23 1   
@<TRIPOS>SUBSTRUCTURE
     1 2UD         1 TEMP              0 ****  ****    0 ROOT
