@<TRIPOS>MOLECULE
molecule
   23    24     1     0     0
SMALL
bcc


@<TRIPOS>ATOM
      1 OAN          0.0000     0.0000     0.0000 o          1 2UD      -0.803300
      2 CAM          1.2140     0.0000     0.0000 c          1 2UD       0.828600
      3 OAO          1.8880     0.0000     1.1670 o          1 2UD      -0.803300
      4 CAK          1.9540    -0.0060    -1.2800 cs         1 2UD       0.220400
      5 SAL          3.5530    -0.0060    -1.2790 s          1 2UD      -0.411400
      6 CAJ          1.2010    -0.0130    -2.5850 c3         1 2UD      -0.058200
      7 CAI          2.1800    -0.0180    -3.7310 cc         1 2UD      -0.098400
      8 CAE          2.8200    -1.1950    -4.3230 ca         1 2UD      -0.080800
      9 CAF          2.7560    -2.5660    -4.0690 ca         1 2UD      -0.030000
     10 CAA          3.4980    -3.4320    -4.8230 ca         1 2UD      -0.054900
     11 Br           3.4110    -5.2890    -4.4780 br         1 2UD      -0.128100
     12 CAB          4.3150    -2.9570    -5.8410 ca         1 2UD      -0.097000
     13 CAC          4.3930    -1.6080    -6.1090 ca         1 2UD      -0.153000
     14 CAD          3.6460    -0.7100    -5.3540 ca         1 2UD      -0.030200
     15 NAG          3.5080     0.6600    -5.3730 na         1 2UD      -0.185400
     16 CAH          2.6270     1.0530    -4.4040 cd         1 2UD      -0.110100
     17 H2           0.5780     0.8720    -2.6470 hc         1 2UD       0.072700
     18 H3           0.5780    -0.8970    -2.6380 hc         1 2UD       0.072700
     19 H4           2.0600    -2.9480    -3.3320 ha         1 2UD       0.152000
     20 H5           4.8970    -3.6550    -6.4310 ha         1 2UD       0.129000
     21 H6           5.0330    -1.2480    -6.9050 ha         1 2UD       0.118000
     22 H7           3.9780     1.2760    -6.0070 hn         1 2UD       0.285700
     23 H8           2.3340     2.0770    -4.2080 h4         1 2UD       0.165000
@<TRIPOS>BOND
     1    11    10 1
     2    10     9 ar
     3    10    12 ar
     4     9     8 ar
     5    12    13 ar
     6     8    14 ar
     7     8     7 1
     8    13    14 ar
     9     6     7 1
    10     6     4 1
    11    14    15 1
    12     7    16 2
    13     5     4 2
    14     4     2 1
    15    15    16 1
    16     2     1 1
    17     2     3 1
    18     6    17 1
    19     6    18 1
    20     9    19 1
    21    12    20 1
    22    13    21 1
    23    15    22 1
    24    16    23 1
@<TRIPOS>SUBSTRUCTURE
     1 2UD         1 TEMP              0 ****  ****    0 ROOT
