@<TRIPOS>MOLECULE
2UE
   28    28     1     0     0
SMALL
bcc


@<TRIPOS>ATOM
      1 C1           0.0000     0.0000     0.0000 c3         1 2UE      -0.107100
      2 N1          -0.7850     0.0070     6.3700 nu         1 2UE      -0.486200
      3 O1           2.1110    -0.8560    -0.6000 o          1 2UE      -0.529100
      4 C2           1.5070     0.0000     0.0000 c          1 2UE       0.649900
      5 N2           0.0710     0.0140     8.5920 nz         1 2UE       0.192400
      6 C3          -0.5010     0.0000     1.4210 ca         1 2UE      -0.048300
      7 N3          -2.2150     0.0040     8.1970 n2         1 2UE      -0.630100
      8 C4          -0.7260    -1.1970     2.0760 ca         1 2UE      -0.088000
      9 C5          -0.7320     1.1970     2.0730 ca         1 2UE      -0.088000
     10 C6          -1.1870    -1.1970     3.3790 ca         1 2UE      -0.070500
     11 C7          -1.4230     0.0000     4.0290 ca         1 2UE      -0.169300
     12 C8          -1.1930     1.1970     3.3770 ca         1 2UE      -0.070500
     13 C9          -1.9250     0.0010     5.4500 c3         1 2UE       0.239100
     14 C10         -0.9990     0.0090     7.7280 c2         1 2UE       0.242100
     15 H1          -0.3610     0.8850    -0.5110 hc         1 2UE       0.051700
     16 H1A         -0.3610    -0.8850    -0.5110 hc         1 2UE       0.051700
     17 HN1          0.1490    -0.0080     6.0100 hn         1 2UE       0.308800
     18 H2           2.0480     0.7890     0.5090 h4         1 2UE      -0.038800
     19 HN2          0.6250    -0.8060     8.4420 hn         1 2UE       0.224133
     20 HN2A        -0.2630     0.0240     9.5360 hn         1 2UE       0.224133
     21 HN3         -2.9950    -0.0010     7.5700 hn         1 2UE       0.385400
     22 H4          -0.5420    -2.1350     1.5670 ha         1 2UE       0.124000
     23 H5          -0.5520     2.1350     1.5620 ha         1 2UE       0.124000
     24 H6          -1.3650    -2.1350     3.8910 ha         1 2UE       0.108000
     25 H8          -1.3750     2.1350     3.8860 ha         1 2UE       0.108000
     26 H9          -2.5230    -0.8860     5.6210 h1         1 2UE       0.033200
     27 H9A         -2.5300     0.8830     5.6190 h1         1 2UE       0.033200
     28 H23          0.5840     0.8670     8.4830 hn         1 2UE       0.224133
@<TRIPOS>BOND
     1     1     4 1   
     2     1     6 1   
     3     1    15 1   
     4     1    16 1   
     5     2    13 1   
     6     2    14 1   
     7     2    17 1   
     8     3     4 2   
     9     4    18 1   
    10     5    14 1   
    11     5    19 1   
    12     5    20 1   
    13     5    28 1   
    14     6     8 ar  
    15     6     9 ar  
    16     7    14 2   
    17     7    21 1   
    18     8    10 ar  
    19     8    22 1   
    20     9    12 ar  
    21     9    23 1   
    22    10    11 ar  
    23    10    24 1   
    24    11    12 ar  
    25    11    13 1   
    26    12    25 1   
    27    13    26 1   
    28    13    27 1   
@<TRIPOS>SUBSTRUCTURE
     1 2UE         1 TEMP              0 ****  ****    0 ROOT
