@<TRIPOS>MOLECULE
molecule
   28    28     1     0     0
SMALL
bcc


@<TRIPOS>ATOM
      1 C1           0.0000     0.0000     0.0000 c3         1 2UE      -0.165100
      2 N1          -0.7850     0.0070     6.3700 nu         1 2UE      -0.851200
      3 O1           2.1110    -0.8560    -0.6000 o          1 2UE      -0.497100
      4 C2           1.5070     0.0000     0.0000 c          1 2UE       0.567900
      5 N2           0.0710     0.0140     8.5920 nz         1 2UE      -0.807600
      6 C3          -0.5010     0.0000     1.4210 ca         1 2UE      -0.050300
      7 N3          -2.2150     0.0040     8.1970 n2         1 2UE      -0.784100
      8 C4          -0.7260    -1.1970     2.0760 ca         1 2UE      -0.120500
      9 C5          -0.7320     1.1970     2.0730 ca         1 2UE      -0.120500
     10 C6          -1.1870    -1.1970     3.3790 ca         1 2UE      -0.101500
     11 C7          -1.4230     0.0000     4.0290 ca         1 2UE      -0.157300
     12 C8          -1.1930     1.1970     3.3770 ca         1 2UE      -0.101500
     13 C9          -1.9250     0.0010     5.4500 c3         1 2UE       0.302100
     14 C10         -0.9990     0.0090     7.7280 c2         1 2UE       0.686100
     15 H1          -0.3610     0.8850    -0.5110 hc         1 2UE       0.086700
     16 H1A         -0.3610    -0.8850    -0.5110 hc         1 2UE       0.086700
     17 HN1          0.1490     0.0030     6.0100 hn         1 2UE       0.456800
     18 H2           2.0480     0.7880     0.5100 h4         1 2UE      -0.000800
     19 HN2          0.4850     0.9250     8.6050 hn         1 2UE       0.466467
     20 HN2A        -0.2430    -0.2230     9.5120 hn         1 2UE       0.466467
     21 HN3         -2.3710     0.0050     9.1860 hn         1 2UE       0.438400
     22 H4          -0.5420    -2.1350     1.5670 ha         1 2UE       0.151000
     23 H5          -0.5520     2.1350     1.5620 ha         1 2UE       0.151000
     24 H6          -1.3650    -2.1350     3.8910 ha         1 2UE       0.137000
     25 H8          -1.3750     2.1350     3.8860 ha         1 2UE       0.137000
     26 H9          -2.5230    -0.8860     5.6210 h1         1 2UE       0.078700
     27 H9A         -2.5300     0.8830     5.6190 h1         1 2UE       0.078700
     28 H23          0.7830    -0.5970     8.2450 hn         1 2UE       0.466467
@<TRIPOS>BOND
     1     1     6 1
     2     1     4 1
     3     1    15 1
     4     1    16 1
     5    13     2 1
     6     2    14 1
     7     2    17 1
     8     3     4 2
     9     4    18 1
    10    14     5 1
    11     5    19 1
    12     5    20 1
    13     8     6 ar
    14     6     9 ar
    15    14     7 2
    16     7    21 1
    17     8    10 ar
    18     8    22 1
    19     9    12 ar
    20     9    23 1
    21    10    11 ar
    22    10    24 1
    23    12    11 ar
    24    11    13 1
    25    12    25 1
    26    13    26 1
    27    13    27 1
    28    28     5 1
@<TRIPOS>SUBSTRUCTURE
     1 2UE         1 TEMP              0 ****  ****    0 ROOT
