@<TRIPOS>MOLECULE
molecule
   24    23     1     0     0
SMALL
bcc


@<TRIPOS>ATOM
      1 O6A          0.0000     0.0000     0.0000 o          1 2UF      -0.838300
      2 C6           1.2080     0.0000     0.0000 c          1 2UF       0.865600
      3 O6B          1.8800     0.0000     1.1620 o          1 2UF      -0.838300
      4 C5           1.9610    -0.0060    -1.3050 c3         1 2UF       0.014100
      5 O5           1.0370    -0.1290    -2.3880 oh         1 2UF      -0.633800
      6 C4           2.7440     1.3010    -1.4490 c3         1 2UF       0.178100
      7 O4           3.6680     1.4230    -0.3660 oh         1 2UF      -0.551800
      8 C3           3.5090     1.2950    -2.7740 c3         1 2UF       0.145100
      9 O3           4.3300     0.1280    -2.8450 oh         1 2UF      -0.575800
     10 C2           4.3870     2.5440    -2.8610 c3         1 2UF       0.142100
     11 O2           5.2370     2.6100    -1.7140 oh         1 2UF      -0.550800
     12 C1           5.2450     2.4770    -4.1270 c3         1 2UF       0.101400
     13 O1           5.9790     3.6940    -4.2700 oh         1 2UF      -0.621800
     14 H2           2.6490    -0.8420    -1.3220 h1         1 2UF       0.046700
     15 H3           0.7620    -1.0270    -2.4660 ho         1 2UF       0.394000
     16 H4           2.0560     2.1380    -1.4320 h1         1 2UF       0.033700
     17 H5           3.3430     2.0530     0.2550 ho         1 2UF       0.402000
     18 H6           2.8040     1.2910    -3.5980 h1         1 2UF       0.043700
     19 H7           4.1230    -0.3550    -3.6280 ho         1 2UF       0.378000
     20 H8           3.7590     3.4250    -2.8970 h1         1 2UF       0.032700
     21 H9           5.5080     3.5020    -1.5750 ho         1 2UF       0.385000
     22 H10          5.9350     1.6460    -4.0520 h1         1 2UF       0.028700
     23 H11          4.6040     2.3380    -4.9900 h1         1 2UF       0.028700
     24 H12          6.4010     3.7100    -5.1130 ho         1 2UF       0.392000
@<TRIPOS>BOND
     1    13    12 1   
     2    11    10 1   
     3    12    10 1   
     4    10     8 1   
     5     9     8 1   
     6     8     6 1   
     7     7     6 1   
     8     6     4 1   
     9     4     5 1   
    10     4     2 1   
    11     1     2 1   
    12     2     3 1   
    13     4    14 1   
    14     5    15 1   
    15     6    16 1   
    16     7    17 1   
    17     8    18 1   
    18     9    19 1   
    19    10    20 1   
    20    11    21 1   
    21    12    22 1   
    22    12    23 1   
    23    13    24 1   
@<TRIPOS>SUBSTRUCTURE
     1 2UF         1 TEMP              0 ****  ****    0 ROOT
