@<TRIPOS>MOLECULE
2UF
   24    23     1     0     0
SMALL
bcc


@<TRIPOS>ATOM
      1 O6A        -0.1780    1.0610   -0.5850 o         1 2UF     -0.828300
      2 C6          0.8710    0.3850   -0.3940 c         1 2UF      0.893600
      3 O6B         1.1690   -0.2120    0.6790 o         1 2UF     -0.828300
      4 C5          1.8640    0.2850   -1.5810 c3        1 2UF     -0.020900
      5 O5          1.4100    1.0100   -2.7100 oh        1 2UF     -0.644800
      6 C4          3.2480    0.8070   -1.1630 c3        1 2UF      0.124100
      7 O4          3.8610   -0.0530   -0.2170 oh        1 2UF     -0.644800
      8 C3          4.2070    0.8820   -2.3670 c3        1 2UF      0.157100
      9 O3          5.5300    0.5070   -2.0410 oh        1 2UF     -0.605800
     10 C2          4.1870    2.3010   -2.9670 c3        1 2UF      0.110100
     11 O2          4.8470    3.1640   -2.0530 oh        1 2UF     -0.602800
     12 C1          4.9120    2.3030   -4.3150 c3        1 2UF      0.091400
     13 O1          4.9650    3.6540   -4.7570 oh        1 2UF     -0.618800
     14 H2          1.9540   -0.7890   -1.8980 h1        1 2UF      0.047700
     15 H3          0.6140    1.4960   -2.4330 ho        1 2UF      0.430000
     16 H4          3.1430    1.8310   -0.7040 h1        1 2UF      0.047700
     17 H5          3.1680   -0.3190    0.4140 ho        1 2UF      0.456000
     18 H6          3.8840    0.1530   -3.1620 h1        1 2UF      0.071700
     19 H7          5.7150    0.8600   -1.1610 ho        1 2UF      0.420000
     20 H8          3.1170    2.6290   -3.1030 h1        1 2UF      0.076700
     21 H9          4.8420    4.0400   -2.4590 ho        1 2UF      0.404000
     22 H10         5.9490    1.8940   -4.1880 h1        1 2UF      0.036700
     23 H11         4.3460    1.6830   -5.0590 h1        1 2UF      0.036700
     24 H12         5.5230    3.6620   -5.5410 ho        1 2UF      0.391000
@<TRIPOS>BOND
     1    1    2 1   
     2    2    3 1   
     3    2    4 1   
     4    4    5 1   
     5    4    6 1   
     6    4   14 1   
     7    5   15 1   
     8    6    7 1   
     9    6    8 1   
    10    6   16 1   
    11    7   17 1   
    12    8    9 1   
    13    8   10 1   
    14    8   18 1   
    15    9   19 1   
    16   10   11 1   
    17   10   12 1   
    18   10   20 1   
    19   11   21 1   
    20   12   13 1   
    21   12   22 1   
    22   12   23 1   
    23   13   24 1   
@<TRIPOS>SUBSTRUCTURE
     1 2UF         1 TEMP              0 ****  ****    0 ROOT
