@<TRIPOS>MOLECULE
2UG
   41    44     1     0     0
SMALL
bcc


@<TRIPOS>ATOM
      1 C1           0.0000     0.0000     0.0000 ca         1 2UG       0.517200
      2 C2           1.3980     0.0000     0.0000 cp         1 2UG      -0.487100
      3 C3           2.1580     0.0030    -1.2720 cp         1 2UG       0.552800
      4 C11          6.0110     0.3400    -4.4820 ca         1 2UG      -0.248300
      5 C12          2.0610     0.0000     1.2320 ca         1 2UG       0.508600
      6 C13          3.5670     0.0000     1.2890 c3         1 2UG      -0.043700
      7 C14          4.0710     1.4360     1.4470 cx         1 2UG      -0.088700
      8 C15          4.8260     1.7830     2.7320 cx         1 2UG      -0.085400
      9 C16          5.5840     1.6630     1.4080 cx         1 2UG      -0.085400
     10 C            0.0230    -0.0020     2.3010 ca         1 2UG       0.717900
     11 N6           1.3490    -0.0010     2.3430 nb         1 2UG      -0.694000
     12 N1          -0.6410    -0.0000     1.1550 nb         1 2UG      -0.708000
     13 N5           3.2230     0.7860    -1.4220 nb         1 2UG      -0.679000
     14 C6           3.9040     0.7890    -2.5570 ca         1 2UG       0.702900
     15 N2           3.5550     0.0210    -3.5800 nb         1 2UG      -0.689000
     16 C5           2.5060    -0.7830    -3.5020 ca         1 2UG       0.489200
     17 C4           1.7710    -0.8240    -2.3320 ca         1 2UG      -0.405600
     18 N3           5.0090     1.6170    -2.6810 nu         1 2UG      -0.284300
     19 C7           5.8050     1.5510    -3.8220 ca         1 2UG       0.032600
     20 C10          6.8060     0.3170    -5.6090 ca         1 2UG       0.424700
     21 N4           7.3670     1.4220    -6.0630 nb         1 2UG      -0.604000
     22 C9           7.1970     2.5870    -5.4670 ca         1 2UG       0.424700
     23 C8           6.4160     2.6960    -4.3350 ca         1 2UG      -0.248300
     24 H1          -0.5500     0.0010    -0.9340 h4         1 2UG      -0.014900
     25 H2           5.5540    -0.5700    -4.1150 ha         1 2UG       0.128000
     26 H3           3.8970    -0.5930     2.1330 hc         1 2UG       0.032700
     27 H4           3.9630    -0.4230     0.3740 hc         1 2UG       0.032700
     28 H5           3.4800     2.2460     1.0360 hc         1 2UG       0.065700
     29 H6           4.6840     2.7920     3.1000 hc         1 2UG       0.043950
     30 H7           4.9670     0.9640     3.4270 hc         1 2UG       0.043950
     31 H8           6.1880     0.7710     1.2940 hc         1 2UG       0.043950
     32 H9           5.9050     2.5990     0.9670 hc         1 2UG       0.043950
     33 H10         -1.6860     0.0110     3.4740 hn         1 2UG       0.276300
     34 H11         -0.1970    -0.0250     4.3620 hn         1 2UG       0.276300
     35 H12          2.2320    -1.4080    -4.3430 h4         1 2UG      -0.015900
     36 H13          0.9080    -1.4730    -2.2420 ha         1 2UG       0.131000
     37 H14          5.2310     2.2670    -1.9530 hn         1 2UG       0.297800
     38 H15          6.9720    -0.6190    -6.1280 h4         1 2UG      -0.022400
     39 H16          7.6750     3.4700    -5.8730 h4         1 2UG      -0.022400
     40 H17          6.2800     3.6550    -3.8500 ha         1 2UG       0.128000
     41 N           -0.6850    -0.0040     3.4880 nv         1 2UG      -0.486500
@<TRIPOS>BOND
     1     1     2 ar  
     2     1    12 ar  
     3     1    24 1   
     4     2     3 1   
     5     2     5 ar  
     6     3    13 ar  
     7     3    17 ar  
     8     4    19 ar  
     9     4    20 ar  
    10     4    25 1   
    11     5     6 1   
    12     5    11 ar  
    13     6     7 1   
    14     6    26 1   
    15     6    27 1   
    16     7     8 1   
    17     7     9 1   
    18     7    28 1   
    19     8     9 1   
    20     8    29 1   
    21     8    30 1   
    22     9    31 1   
    23     9    32 1   
    24    10    11 ar  
    25    10    12 ar  
    26    10    41 1   
    27    13    14 ar  
    28    14    15 ar  
    29    14    18 1   
    30    15    16 ar  
    31    16    17 ar  
    32    16    35 1   
    33    17    36 1   
    34    18    19 1   
    35    18    37 1   
    36    19    23 ar  
    37    20    21 ar  
    38    20    38 1   
    39    21    22 ar  
    40    22    23 ar  
    41    22    39 1   
    42    23    40 1   
    43    33    41 1   
    44    34    41 1   
@<TRIPOS>SUBSTRUCTURE
     1 2UG         1 TEMP              0 ****  ****    0 ROOT
