@<TRIPOS>MOLECULE
molecule
   59    61     1     0     0
SMALL
bcc


@<TRIPOS>ATOM
      1 O3B          0.0000     0.0000     0.0000 o          1 2UH      -0.891167
      2 PB           1.6110     0.0000     0.0000 p5         1 2UH       1.304900
      3 O1B          2.1040     0.0000     1.3950 o          1 2UH      -0.891167
      4 O2B          2.1470    -1.3160    -0.7590 o          1 2UH      -0.891167
      5 O3A          2.1480     1.3140    -0.7600 os         1 2UH      -0.708800
      6 PA           3.5750     2.0530    -0.8420 p5         1 2UH       1.418800
      7 O1A          4.5190     1.2840    -1.8950 o          1 2UH      -0.857000
      8 O2A          4.2140     2.0430     0.4940 o          1 2UH      -0.857000
      9 O5'          3.3640     3.5750    -1.3230 os         1 2UH      -0.582200
     10 C5'          4.4300     4.5250    -1.3940 c3         1 2UH       0.234400
     11 C4'          3.8860     5.8670    -1.8870 c3         1 2UH       0.116100
     12 O4'          2.9980     6.4250    -0.9040 os         1 2UH      -0.365600
     13 C3'          5.0450     6.8630    -2.0790 c3         1 2UH       0.079100
     14 O3'          5.1120     7.2960    -3.4390 oh         1 2UH      -0.590800
     15 C2'          4.6880     8.0470    -1.1480 c3         1 2UH       0.080100
     16 O2'          4.9740     9.2980    -1.7770 oh         1 2UH      -0.579800
     17 C1'          3.1570     7.8590    -0.9580 c3         1 2UH       0.252800
     18 N9           2.7130     8.4760     0.2940 na         1 2UH      -0.184900
     19 C4           2.3710     9.7890     0.4730 cc         1 2UH       0.089800
     20 N3           2.3270    10.8590    -0.3300 nd         1 2UH      -0.681100
     21 C8           2.5590     7.8460     1.4950 cc         1 2UH       0.450400
     22 N7           2.1500     8.6960     2.3900 nd         1 2UH      -0.652000
     23 C5           2.0090     9.9170     1.8180 cd         1 2UH       0.160800
     24 C6           1.6030    11.1860     2.2930 c          1 2UH       0.646000
     25 O6           1.2800    11.3440     3.4580 o          1 2UH      -0.662500
     26 N1           1.5820    12.2200     1.4230 ns         1 2UH      -0.491400
     27 C2           1.9490    12.0330     0.1230 cc         1 2UH       0.646800
     28 N4           1.9180    13.1020    -0.7380 nu         1 2UH      -0.896200
     29 CAO          2.3070    12.9250    -2.1390 c3         1 2UH       0.263800
     30 CAM          2.1850    14.2610    -2.8750 c3         1 2UH      -0.124400
     31 CAN          2.5910    14.0750    -4.3380 c3         1 2UH       0.114000
     32 NAS          2.4740    15.3540    -5.0430 ns         1 2UH      -0.590900
     33 CAY          2.7820    15.4330    -6.3530 c          1 2UH       0.651100
     34 OAB          3.1560    14.4440    -6.9480 o          1 2UH      -0.599100
     35 CAL          2.6610    16.7480    -7.0770 c3         1 2UH      -0.161400
     36 CAA          3.0670    16.5630    -8.5420 c3         1 2UH      -0.075100
     37 H4           4.8670     4.6510    -0.4110 h1         1 2UH       0.027700
     38 H5           5.1860     4.1670    -2.0830 h1         1 2UH       0.027700
     39 H6           3.3580     5.7340    -2.8240 h1         1 2UH       0.081700
     40 H7           5.9820     6.4130    -1.7730 h1         1 2UH       0.051700
     41 H8           5.9510     7.0660    -3.8020 ho         1 2UH       0.391000
     42 H9           5.2040     7.9570    -0.2000 h1         1 2UH       0.057700
     43 H10          5.8350     9.5870    -1.5230 ho         1 2UH       0.384000
     44 H11          2.6180     8.2680    -1.8040 h2         1 2UH       0.091700
     45 H12          2.7490     6.7950     1.6760 h5         1 2UH       0.111100
     46 H13          1.2990    13.1280     1.7350 hn         1 2UH       0.306500
     47 H14          1.6330    14.0030    -0.4070 hn         1 2UH       0.423800
     48 H15          3.3320    12.5780    -2.1890 h1         1 2UH       0.066200
     49 H16          1.6560    12.1950    -2.6050 h1         1 2UH       0.066200
     50 H17          2.8350    14.9910    -2.4090 hc         1 2UH       0.039200
     51 H18          1.1590    14.6070    -2.8260 hc         1 2UH       0.039200
     52 H19          1.9410    13.3450    -4.8040 h1         1 2UH       0.065200
     53 H20          3.6170    13.7290    -4.3870 h1         1 2UH       0.065200
     54 H21          2.1650    16.1700    -4.5520 hn         1 2UH       0.304500
     55 H22          1.6360    17.0950    -7.0280 hc         1 2UH       0.051700
     56 H23          3.3120    17.4780    -6.6120 hc         1 2UH       0.051700
     57 H24          4.0920    16.2160    -8.5910 hc         1 2UH       0.041033
     58 H25          2.4160    15.8330    -9.0070 hc         1 2UH       0.041033
     59 H26          2.9800    17.5090    -9.0630 hc         1 2UH       0.041033
@<TRIPOS>BOND
     1    36    35 1
     2    35    33 1
     3    32    33 1
     4    32    31 1
     5    30    31 1
     6    30    29 1
     7    33    34 2
     8    28    29 1
     9    28    27 1
    10    26    27 1
    11    26    24 1
    12    25    24 2
    13    27    20 2
    14    24    23 1
    15    20    19 1
    16    23    19 2
    17    23    22 1
    18    19    18 1
    19    16    15 1
    20    22    21 2
    21    18    21 1
    22    18    17 1
    23    15    17 1
    24    15    13 1
    25    17    12 1
    26    14    13 1
    27    13    11 1
    28    12    11 1
    29    11    10 1
    30     8     6 1
    31     9    10 1
    32     9     6 1
    33     6     7 1
    34     6     5 1
    35     5     2 1
    36     3     2 1
    37     2     4 1
    38     2     1 1
    39    10    37 1
    40    10    38 1
    41    11    39 1
    42    13    40 1
    43    14    41 1
    44    15    42 1
    45    16    43 1
    46    17    44 1
    47    21    45 1
    48    26    46 1
    49    28    47 1
    50    29    48 1
    51    29    49 1
    52    30    50 1
    53    30    51 1
    54    31    52 1
    55    31    53 1
    56    32    54 1
    57    35    55 1
    58    35    56 1
    59    36    57 1
    60    36    58 1
    61    36    59 1
@<TRIPOS>SUBSTRUCTURE
     1 2UH         1 TEMP              0 ****  ****    0 ROOT
