@<TRIPOS>MOLECULE
molecule
   63    65     1     0     0
SMALL
bcc


@<TRIPOS>ATOM
      1 OAB          0.0000     0.0000     0.0000 o          1 2UJ      -0.644100
      2 CBB          1.2130     0.0000     0.0000 c          1 2UJ       0.601100
      3 CAN          1.9660     0.0000     1.3060 c3         1 2UJ      -0.153400
      4 CAA          0.9720     0.0020     2.4680 c3         1 2UJ      -0.072100
      5 NAU          1.8880    -0.0070    -1.1670 ns         1 2UJ      -0.586900
      6 CAP          1.1550    -0.0130    -2.4350 c3         1 2UJ       0.112000
      7 CAO          2.1500    -0.0200    -3.5990 c3         1 2UJ      -0.121400
      8 CAQ          1.3850    -0.0270    -4.9230 c3         1 2UJ       0.244800
      9 N2           2.3370    -0.0340    -6.0370 nu         1 2UJ      -0.893200
     10 C2           1.8820    -0.0400    -7.3280 cc         1 2UJ       0.887100
     11 N3           2.7870    -0.0460    -8.3410 na         1 2UJ      -0.702600
     12 N1           0.5830    -0.0460    -7.5390 nd         1 2UJ      -0.826100
     13 C6           0.0790    -0.0530    -8.7840 c          1 2UJ       0.661000
     14 O6          -1.1290    -0.0580    -8.9680 o          1 2UJ      -0.599100
     15 C5           1.0090    -0.0530    -9.9180 cd         1 2UJ       0.193800
     16 C4           2.3720    -0.0530    -9.6470 cc         1 2UJ       0.000000
     17 N7           0.8630    -0.0590   -11.2630 nd         1 2UJ      -0.651000
     18 C8           2.0400    -0.0570   -11.8200 cc         1 2UJ       0.435400
     19 N9           3.0020    -0.0600   -10.8530 na         1 2UJ      -0.196900
     20 C1'          4.4510    -0.0600   -11.0720 c3         1 2UJ       0.242800
     21 O4'          4.7620     0.3730   -12.4140 os         1 2UJ      -0.354600
     22 C2'          5.0090    -1.5060   -11.0210 c3         1 2UJ       0.077100
     23 O2'          5.3120    -1.8880    -9.6780 oh         1 2UJ      -0.601800
     24 C3'          6.3010    -1.3840   -11.8660 c3         1 2UJ       0.080100
     25 O3'          7.4390    -1.2170   -11.0180 oh         1 2UJ      -0.593800
     26 C4'          6.0750    -0.1220   -12.7210 c3         1 2UJ       0.114100
     27 C5'          6.1640    -0.4780   -14.2070 c3         1 2UJ       0.236400
     28 O5'          6.0690     0.7150   -14.9890 os         1 2UJ      -0.582200
     29 PA           6.1250     0.7160   -16.5980 p5         1 2UJ       1.436800
     30 O1A          4.8410    -0.0620   -17.1790 o          1 2UJ      -0.851000
     31 O2A          7.3590     0.0340   -17.0490 o          1 2UJ      -0.851000
     32 O3A          6.1230     2.2330   -17.1340 os         1 2UJ      -0.722800
     33 PB           6.4630     2.9190   -18.5500 p5         1 2UJ       1.514800
     34 O1B          5.8270     2.1430   -19.6390 o          1 2UJ      -0.871500
     35 O2B          8.0570     2.9400   -18.7680 o          1 2UJ      -0.871500
     36 O3B          5.8990     4.4270   -18.5650 os         1 2UJ      -0.734800
     37 PG           5.5410     5.4760   -19.7340 p5         1 2UJ       1.333900
     38 O1G          4.7760     4.7880   -20.7980 o          1 2UJ      -0.836833
     39 O2G          4.6550     6.6740   -19.1260 o          1 2UJ      -0.836833
     40 O3G          6.9020     6.0740   -20.3530 o          1 2UJ      -0.836833
     41 H1           2.5890     0.8840     1.3630 hc         1 2UJ       0.040200
     42 H2           2.5880    -0.8850     1.3640 hc         1 2UJ       0.040200
     43 H3           1.5130     0.0020     3.4070 hc         1 2UJ       0.033033
     44 H4           0.3480    -0.8820     2.4120 hc         1 2UJ       0.033033
     45 H5           0.3490     0.8870     2.4100 hc         1 2UJ       0.033033
     46 H6           2.8880     0.0190    -1.1670 hn         1 2UJ       0.294500
     47 H7           0.5320    -0.8970    -2.4880 h1         1 2UJ       0.050200
     48 H8           0.5330     0.8720    -2.4970 h1         1 2UJ       0.050200
     49 H9           2.7740     0.8640    -3.5460 hc         1 2UJ       0.037700
     50 H10          2.7720    -0.9050    -3.5360 hc         1 2UJ       0.037700
     51 H11          0.7630     0.8570    -4.9860 h1         1 2UJ       0.053700
     52 H12          0.7620    -0.9120    -4.9760 h1         1 2UJ       0.053700
     53 H13          3.3210    -0.0310    -5.8530 hn         1 2UJ       0.412800
     54 H14          3.7650    -0.0430    -8.1320 hn         1 2UJ       0.422800
     55 H15          2.2270    -0.0530   -12.8870 h5         1 2UJ       0.109100
     56 H16          4.9530     0.5660   -10.3450 h2         1 2UJ       0.074700
     57 H17          4.3160    -2.2000   -11.4800 h1         1 2UJ       0.064700
     58 H18          5.2330    -2.8240    -9.5920 ho         1 2UJ       0.392000
     59 H19          6.4190    -2.2540   -12.5010 h1         1 2UJ       0.054700
     60 H20          8.0790    -1.8800   -11.2160 ho         1 2UJ       0.392000
     61 H21          6.8170     0.6270   -12.4720 h1         1 2UJ       0.083700
     62 H22          5.3510    -1.1450   -14.4670 h1         1 2UJ       0.028700
     63 H23          7.1100    -0.9660   -14.4060 h1         1 2UJ       0.028700
@<TRIPOS>BOND
     1     1     2 2
     2     3     2 1
     3     3     4 1
     4     2     5 1
     5     5     6 1
     6     6     7 1
     7     7     8 1
     8     8     9 1
     9     9    10 1
    10    25    24 1
    11    10    11 1
    12    10    12 2
    13    11    16 1
    14    23    22 1
    15    24    22 1
    16    24    26 1
    17    12    13 1
    18    20    22 1
    19    20    21 1
    20    20    19 1
    21    26    21 1
    22    26    27 1
    23    16    19 1
    24    16    15 2
    25    19    18 1
    26    13    15 1
    27    13    14 2
    28    15    17 1
    29    27    28 1
    30    18    17 2
    31    28    29 1
    32    31    29 1
    33    29    32 1
    34    29    30 1
    35    32    33 1
    36    38    37 1
    37    36    33 1
    38    36    37 1
    39    33    34 1
    40    33    35 1
    41    37    39 1
    42    37    40 1
    43     3    41 1
    44     3    42 1
    45     4    43 1
    46     4    44 1
    47     4    45 1
    48     5    46 1
    49     6    47 1
    50     6    48 1
    51     7    49 1
    52     7    50 1
    53     8    51 1
    54     8    52 1
    55     9    53 1
    56    11    54 1
    57    18    55 1
    58    20    56 1
    59    22    57 1
    60    23    58 1
    61    24    59 1
    62    25    60 1
    63    26    61 1
    64    27    62 1
    65    27    63 1
@<TRIPOS>SUBSTRUCTURE
     1 2UJ         1 TEMP              0 ****  ****    0 ROOT
