@<TRIPOS>MOLECULE
2UN
   48    49     1     0     0
SMALL
bcc


@<TRIPOS>ATOM
      1 O7           0.0000     0.0000     0.0000 o          1 2UN      -0.650533
      2 S1           1.4210     0.0000     0.0000 s6         1 2UN       1.106700
      3 O5           2.2430     0.0000     1.1590 o          1 2UN      -0.650533
      4 O6           1.8350    -1.2250    -0.8020 o          1 2UN      -0.650533
      5 N1           1.8710     1.3350    -0.8700 nu         1 2UN      -0.450500
      6 C5           1.2760     1.5960    -2.1070 ca         1 2UN       0.164600
      7 C4           0.8500     2.8820    -2.4170 ca         1 2UN      -0.154000
      8 C2           1.1080     0.5710    -3.0290 ca         1 2UN      -0.154000
      9 C6           0.5130     0.8320    -4.2480 ca         1 2UN      -0.082000
     10 C3           0.0960     2.1130    -4.5560 ca         1 2UN      -0.189300
     11 C1           0.2630     3.1360    -3.6410 ca         1 2UN      -0.082000
     12 C19         -0.5460     2.3940    -5.8900 c3         1 2UN       0.055900
     13 C7           0.5320     2.7820    -6.9040 c3         1 2UN      -0.136000
     14 C8           1.5160     1.6500    -7.0480 c          1 2UN       0.697600
     15 O2           2.6830     1.8260    -6.7890 o          1 2UN      -0.521500
     16 O1           1.0950     0.4450    -7.4670 os         1 2UN      -0.432400
     17 C17          2.0440    -0.6450    -7.6060 c3         1 2UN       0.273700
     18 C9           1.2520     4.0150    -6.4240 c          1 2UN       0.697600
     19 O4           0.5720     5.1540    -6.2210 os         1 2UN      -0.432400
     20 C18          1.2660     6.3430    -5.7590 c3         1 2UN       0.273700
     21 O3           2.4430     3.9780    -6.2190 o          1 2UN      -0.521500
     22 C10         -0.1200     3.0680    -8.2580 c3         1 2UN       0.033900
     23 C11          0.9420     3.4500    -9.2560 ca         1 2UN      -0.069300
     24 C13          1.2960     4.7760    -9.4140 ca         1 2UN      -0.105000
     25 C16          2.2740     5.1270   -10.3270 ca         1 2UN      -0.103500
     26 C12          2.8900     4.1510   -11.0890 ca         1 2UN      -0.113000
     27 C15          2.5310     2.8250   -10.9350 ca         1 2UN      -0.103500
     28 C14          1.5560     2.4750   -10.0190 ca         1 2UN      -0.105000
     29 HN1          2.5800     1.9470    -0.5180 hn         1 2UN       0.314800
     30 H4           0.9800     3.6850    -1.7010 ha         1 2UN       0.136000
     31 H2           1.4340    -0.4340    -2.7880 ha         1 2UN       0.136000
     32 H6           0.3810     0.0320    -4.9670 ha         1 2UN       0.092000
     33 H1          -0.0680     4.1390    -3.8850 ha         1 2UN       0.092000
     34 H191        -1.2530     3.2080    -5.7860 hc         1 2UN       0.025200
     35 H192        -1.0650     1.5080    -6.2360 hc         1 2UN       0.025200
     36 H171         1.5100    -1.5630    -7.8220 h1         1 2UN      -0.002133
     37 H172         2.7280    -0.4270    -8.4170 h1         1 2UN      -0.002133
     38 H173         2.6010    -0.7600    -6.6840 h1         1 2UN      -0.002133
     39 H181         1.6770     6.1610    -4.7730 h1         1 2UN      -0.002133
     40 H182         0.5710     7.1720    -5.7130 h1         1 2UN      -0.002133
     41 H183         2.0690     6.5830    -6.4460 h1         1 2UN      -0.002133
     42 H101        -0.8280     3.8810    -8.1540 hc         1 2UN       0.031700
     43 H102        -0.6380     2.1810    -8.6040 hc         1 2UN       0.031700
     44 H13          0.7630     5.5470    -8.8710 ha         1 2UN       0.116500
     45 H16          2.5560     6.1660   -10.4460 ha         1 2UN       0.099000
     46 H12          3.6460     4.4260   -11.8140 ha         1 2UN       0.096000
     47 H15          3.0250     2.0580   -11.5190 ha         1 2UN       0.099000
     48 H14          1.1140     1.6970   -10.6300 ha         1 2UN       0.116500
@<TRIPOS>BOND
     1     1     2 1   
     2     2     3 1   
     3     2     4 1   
     4     2     5 1   
     5     5     6 1   
     6     5    29 1   
     7     6     7 ar  
     8     6     8 ar  
     9     7    11 ar  
    10     7    30 1   
    11     8     9 ar  
    12     8    31 1   
    13     9    10 ar  
    14     9    32 1   
    15    10    11 ar  
    16    10    12 1   
    17    11    33 1   
    18    12    13 1   
    19    12    34 1   
    20    12    35 1   
    21    13    14 1   
    22    13    18 1   
    23    13    22 1   
    24    14    15 2   
    25    14    16 1   
    26    16    17 1   
    27    17    36 1   
    28    17    37 1   
    29    17    38 1   
    30    18    19 1   
    31    18    21 2   
    32    19    20 1   
    33    20    39 1   
    34    20    40 1   
    35    20    41 1   
    36    22    23 1   
    37    22    42 1   
    38    22    43 1   
    39    23    24 ar  
    40    23    28 ar  
    41    24    25 ar  
    42    24    44 1   
    43    25    26 ar  
    44    25    45 1   
    45    26    27 ar  
    46    26    46 1   
    47    27    28 ar  
    48    27    47 1   
    49    28    48 1   
@<TRIPOS>SUBSTRUCTURE
     1 2UN         1 TEMP              0 ****  ****    0 ROOT
