@<TRIPOS>MOLECULE
2UO
   64    66     1     0     0
SMALL
bcc


@<TRIPOS>ATOM
      1 C1          0.2490    0.0860   -0.2190 c3        1 2UO      0.154100
      2 C2          1.5440    0.7010   -0.7310 c3        1 2UO     -0.098400
      3 C3          2.4420    0.9970    0.4570 c3        1 2UO     -0.044200
      4 C4          1.7050    1.6590    1.5590 c2        1 2UO     -0.157200
      5 C24         0.3650    1.7080    1.6370 ce        1 2UO     -0.088200
      6 C5         -0.3350    2.5160    2.6270 ce        1 2UO     -0.135000
      7 C6         -1.5280    3.0580    2.3450 c2        1 2UO     -0.156200
      8 C7         -2.2400    2.8620    1.0460 c3        1 2UO     -0.033500
      9 C20        -3.5160    2.0780    1.2940 c3        1 2UO     -0.090100
     10 C8         -1.3270    2.2270   -0.0200 c3        1 2UO     -0.038700
     11 C9         -0.5610    1.0660    0.6350 c3        1 2UO     -0.019500
     12 C10        -2.0780    1.8490   -1.2810 c3        1 2UO     -0.073400
     13 C11        -2.8150    3.0200   -1.8970 c3        1 2UO     -0.077400
     14 C12        -3.4540    2.6270   -3.2240 c3        1 2UO      0.157100
     15 C13        -3.8480    3.8570   -4.0360 c3        1 2UO     -0.148400
     16 C14        -4.6230    3.4640   -5.2890 c3        1 2UO      0.143100
     17 O3         -3.8010    2.7630   -6.2160 oh        1 2UO     -0.601800
     18 C15        -5.7810    2.5370   -4.9390 c3        1 2UO     -0.131400
     19 C22        -5.3020    1.3810   -4.0620 c3        1 2UO      0.343900
     20 O2         -6.3600    0.6520   -3.5020 oh        1 2UO     -0.590800
     21 O1         -4.6110    1.8480   -2.9050 os        1 2UO     -0.458600
     22 O4         -0.5680   -0.3810   -1.3040 os        1 2UO     -0.436900
     23 C23        -0.2830   -1.6090   -1.8380 c         1 2UO      0.632100
     24 O5          0.6730   -2.2470   -1.3930 o         1 2UO     -0.543000
     25 C16        -1.2530   -1.9910   -2.9300 c3        1 2UO     -0.107700
     26 C19        -1.0550   -1.0830   -4.1270 c3        1 2UO     -0.090100
     27 C17        -1.0750   -3.4590   -3.2910 c3        1 2UO     -0.078400
     28 C18        -2.2810   -4.0090   -4.0080 c3        1 2UO     -0.094100
     29 H1          0.5090   -0.8020    0.4330 h1        1 2UO      0.070700
     30 H2          1.3190    1.6390   -1.2980 hc        1 2UO      0.056200
     31 H3          2.0480   -0.0170   -1.4280 hc        1 2UO      0.056200
     32 H4          2.8920    0.0390    0.8370 hc        1 2UO      0.055200
     33 H5          3.2900    1.6550    0.1280 hc        1 2UO      0.055200
     34 H6          2.3310    2.1440    2.3250 ha        1 2UO      0.125000
     35 H7          0.1700    2.6840    3.5910 ha        1 2UO      0.129000
     36 H8         -2.0590    3.6830    3.0800 ha        1 2UO      0.123000
     37 H9         -2.5310    3.8850    0.6620 hc        1 2UO      0.050700
     38 H10        -4.1460    2.0470    0.3730 hc        1 2UO      0.039367
     39 H11        -3.2890    1.0290    1.6000 hc        1 2UO      0.039367
     40 H12        -4.1060    2.5610    2.1100 hc        1 2UO      0.039367
     41 H13        -0.5680    3.0110   -0.3110 hc        1 2UO      0.046700
     42 H14        -1.3180    0.4370    1.1890 hc        1 2UO      0.067700
     43 H15        -2.7950    1.0130   -1.0740 hc        1 2UO      0.060200
     44 H16        -1.3340    1.4720   -2.0370 hc        1 2UO      0.060200
     45 H17        -2.1030    3.8660   -2.0820 hc        1 2UO      0.049700
     46 H18        -3.6170    3.3890   -1.2060 hc        1 2UO      0.049700
     47 H19        -2.7510    1.9890   -3.8350 h1        1 2UO      0.049700
     48 H20        -2.9230    4.4210   -4.3200 hc        1 2UO      0.057200
     49 H21        -4.4890    4.5290   -3.4100 hc        1 2UO      0.057200
     50 H22        -5.0210    4.3930   -5.7890 h1        1 2UO      0.037700
     51 H23        -3.0520    3.3370   -6.4150 ho        1 2UO      0.402000
     52 H24        -6.2300    2.1170   -5.8740 hc        1 2UO      0.067700
     53 H25        -6.5640    3.1260   -4.3980 hc        1 2UO      0.067700
     54 H26        -4.6740    0.6520   -4.6450 h2        1 2UO      0.084700
     55 H27        -6.7400    1.1800   -2.7860 ho        1 2UO      0.417000
     56 H28        -2.2920   -1.8310   -2.5190 hc        1 2UO      0.086700
     57 H29        -0.0280   -1.2000   -4.5480 hc        1 2UO      0.046700
     58 H30        -1.2030   -0.0170   -3.8260 hc        1 2UO      0.046700
     59 H31        -1.7970   -1.3390   -4.9210 hc        1 2UO      0.046700
     60 H32        -0.8950   -4.0490   -2.3530 hc        1 2UO      0.056200
     61 H33        -0.1610   -3.5750   -3.9310 hc        1 2UO      0.056200
     62 H34        -3.1950   -3.9220   -3.3730 hc        1 2UO      0.036700
     63 H35        -2.1200   -5.0880   -4.2490 hc        1 2UO      0.036700
     64 H36        -2.4630   -3.4600   -4.9640 hc        1 2UO      0.036700
@<TRIPOS>BOND
     1    1    2 1   
     2    1   11 1   
     3    1   22 1   
     4    1   29 1   
     5    2    3 1   
     6    2   30 1   
     7    2   31 1   
     8    3    4 1   
     9    3   32 1   
    10    3   33 1   
    11    4    5 2   
    12    4   34 1   
    13    5    6 1   
    14    5   11 1   
    15    6    7 2   
    16    6   35 1   
    17    7    8 1   
    18    7   36 1   
    19    8    9 1   
    20    8   10 1   
    21    8   37 1   
    22    9   38 1   
    23    9   39 1   
    24    9   40 1   
    25   10   11 1   
    26   10   12 1   
    27   10   41 1   
    28   11   42 1   
    29   12   13 1   
    30   12   43 1   
    31   12   44 1   
    32   13   14 1   
    33   13   45 1   
    34   13   46 1   
    35   14   15 1   
    36   14   21 1   
    37   14   47 1   
    38   15   16 1   
    39   15   48 1   
    40   15   49 1   
    41   16   17 1   
    42   16   18 1   
    43   16   50 1   
    44   17   51 1   
    45   18   19 1   
    46   18   52 1   
    47   18   53 1   
    48   19   20 1   
    49   19   21 1   
    50   19   54 1   
    51   20   55 1   
    52   22   23 1   
    53   23   24 2   
    54   23   25 1   
    55   25   26 1   
    56   25   27 1   
    57   25   56 1   
    58   26   57 1   
    59   26   58 1   
    60   26   59 1   
    61   27   28 1   
    62   27   60 1   
    63   27   61 1   
    64   28   62 1   
    65   28   63 1   
    66   28   64 1   
@<TRIPOS>SUBSTRUCTURE
     1 2UO         1 TEMP              0 ****  ****    0 ROOT
