@<TRIPOS>MOLECULE
molecule
   62    64     1     0     0
SMALL
bcc


@<TRIPOS>ATOM
      1 C1           0.0000     0.0000     0.0000 c3         1 2UO       0.149100
      2 C2           1.5270     0.0000     0.0000 c3         1 2UO      -0.096400
      3 C3           2.0110     0.0000     1.4580 c3         1 2UO      -0.043200
      4 C4           1.5040     1.2610     2.1090 c2         1 2UO      -0.164200
      5 C24          0.3550     1.8000     1.7480 ce         1 2UO      -0.081200
      6 C5          -0.0500     3.0990     2.3340 ce         1 2UO      -0.133000
      7 C6          -1.0090     3.8060     1.7630 c2         1 2UO      -0.157200
      8 C7          -1.7530     3.3760     0.5350 c3         1 2UO      -0.039500
      9 C20         -3.1140     2.8110     0.9500 c3         1 2UO      -0.094100
     10 C8          -0.9860     2.3060    -0.2440 c3         1 2UO      -0.047700
     11 C9          -0.5620     1.2010     0.7240 c3         1 2UO      -0.021500
     12 C10         -1.8880     1.7190    -1.3330 c3         1 2UO      -0.081400
     13 C11         -2.6990     2.8420    -1.9830 c3         1 2UO      -0.093400
     14 C12         -3.6000     2.2540    -3.0720 c3         1 2UO       0.171100
     15 C13         -4.3190     3.3890    -3.8060 c3         1 2UO      -0.127400
     16 C14         -5.2610     2.7940    -4.8590 c3         1 2UO       0.143100
     17 O3          -4.5050     2.0210    -5.7950 oh         1 2UO      -0.604800
     18 C15         -6.2870     1.8940    -4.1590 c3         1 2UO      -0.198400
     19 C22         -5.5410     0.9040    -3.2940 c          1 2UO       0.748600
     20 O2          -5.7890    -0.2780    -3.3460 o          1 2UO      -0.562500
     21 O1          -4.5890     1.3760    -2.4630 os         1 2UO      -0.440900
     22 O4          -0.4720     0.0130    -1.3730 os         1 2UO      -0.412900
     23 C23         -0.6480    -1.1780    -1.9670 c          1 2UO       0.621100
     24 O5          -0.4140    -2.1970    -1.3610 o          1 2UO      -0.549000
     25 C16         -1.1350    -1.2430    -3.3920 c3         1 2UO      -0.119700
     26 C19         -0.1460    -0.5170    -4.3040 c3         1 2UO      -0.089100
     27 C17         -1.2480    -2.7070    -3.8250 c3         1 2UO      -0.069400
     28 C18         -1.8610    -2.7790    -5.2250 c3         1 2UO      -0.094100
     29 H1          -0.3500    -0.9000     0.4900 h1         1 2UO       0.075700
     30 H2           1.8910     0.8870    -0.5040 hc         1 2UO       0.056200
     31 H3           1.8910    -0.8870    -0.5040 hc         1 2UO       0.056200
     32 H4           3.0940    -0.0160     1.4840 hc         1 2UO       0.055700
     33 H5           1.6120    -0.8640     1.9750 hc         1 2UO       0.055700
     34 H6           2.0930     1.7330     2.8860 ha         1 2UO       0.127000
     35 H7           0.4950     3.5070     3.1760 ha         1 2UO       0.130000
     36 H8          -1.2730     4.7570     2.2090 ha         1 2UO       0.119000
     37 H9          -1.9030     4.2370    -0.1050 hc         1 2UO       0.053700
     38 H10         -3.9010     3.4500     0.5690 hc         1 2UO       0.041700
     39 H11         -3.1730     2.7700     2.0310 hc         1 2UO       0.041700
     40 H12         -3.2300     1.8140     0.5440 hc         1 2UO       0.041700
     41 H13         -0.1060     2.7490    -0.6950 hc         1 2UO       0.057700
     42 H14         -1.4520     0.8710     1.2460 hc         1 2UO       0.067700
     43 H15         -2.5620     0.9950    -0.8920 hc         1 2UO       0.075200
     44 H16         -1.2770     1.2330    -2.0840 hc         1 2UO       0.075200
     45 H17         -2.0250     3.5660    -2.4240 hc         1 2UO       0.056700
     46 H18         -3.3100     3.3280    -1.2320 hc         1 2UO       0.056700
     47 H19         -3.0030     1.6900    -3.7770 h1         1 2UO       0.068700
     48 H20         -3.5880     4.0230    -4.2940 hc         1 2UO       0.063200
     49 H21         -4.8950     3.9710    -3.0960 hc         1 2UO       0.063200
     50 H22         -5.7760     3.5940    -5.3750 h1         1 2UO       0.041700
     51 H23         -4.6890     2.3200    -6.6700 ho         1 2UO       0.409000
     52 H24         -6.9380     2.4990    -3.5400 hc         1 2UO       0.081700
     53 H25         -6.8700     1.3620    -4.9010 hc         1 2UO       0.081700
     54 H28         -2.1070    -0.7700    -3.4640 hc         1 2UO       0.083700
     55 H29          0.1290     0.4300    -3.8570 hc         1 2UO       0.043367
     56 H30         -0.6060    -0.3410    -5.2690 hc         1 2UO       0.043367
     57 H31          0.7410    -1.1260    -4.4330 hc         1 2UO       0.043367
     58 H32         -0.2630    -3.1560    -3.8390 hc         1 2UO       0.057700
     59 H33         -1.8800    -3.2420    -3.1270 hc         1 2UO       0.057700
     60 H34         -2.2700    -3.7680    -5.3900 hc         1 2UO       0.036033
     61 H35         -1.0960    -2.5770    -5.9650 hc         1 2UO       0.036033
     62 H36         -2.6500    -2.0420    -5.3120 hc         1 2UO       0.036033
@<TRIPOS>BOND
     1     6     7 2
     2     6     5 1
     3     7     8 1
     4     4     5 2
     5     4     3 1
     6     5    11 1
     7     9     8 1
     8     3     2 1
     9     8    10 1
    10    11    10 1
    11    11     1 1
    12     2     1 1
    13    10    12 1
    14     1    22 1
    15    22    23 1
    16    12    13 1
    17    13    14 1
    18    23    25 1
    19    23    24 2
    20    21    14 1
    21    21    19 1
    22    25    27 1
    23    25    26 1
    24    20    19 2
    25    14    15 1
    26    15    16 1
    27    27    28 1
    28    19    18 1
    29    18    16 1
    30    16    17 1
    31     1    29 1
    32     2    30 1
    33     2    31 1
    34     3    32 1
    35     3    33 1
    36     4    34 1
    37     6    35 1
    38     7    36 1
    39     8    37 1
    40     9    38 1
    41     9    39 1
    42     9    40 1
    43    10    41 1
    44    11    42 1
    45    12    43 1
    46    12    44 1
    47    13    45 1
    48    13    46 1
    49    14    47 1
    50    15    48 1
    51    15    49 1
    52    16    50 1
    53    17    51 1
    54    18    52 1
    55    18    53 1
    56    25    54 1
    57    26    55 1
    58    26    56 1
    59    26    57 1
    60    27    58 1
    61    27    59 1
    62    28    60 1
    63    28    61 1
    64    28    62 1
@<TRIPOS>SUBSTRUCTURE
     1 2UO         1 TEMP              0 ****  ****    0 ROOT
