@<TRIPOS>MOLECULE
2UP
   24    25     1     0     0
SMALL
bcc


@<TRIPOS>ATOM
      1 CAI          0.0000     0.0000     0.0000 ca         1 2UP      -0.026000
      2 CAM          1.4030     0.0000     0.0000 ca         1 2UP      -0.055000
      3 CAG          2.1300     0.0000     1.2040 ca         1 2UP      -0.084000
      4 CAD          3.4900    -0.0000     1.1690 ca         1 2UP      -0.063000
      5 CAC          4.1770    -0.0000    -0.0440 ca         1 2UP      -0.052000
      6 CAF          3.5060     0.0000    -1.2280 ca         1 2UP      -0.088000
      7 CAL          2.1010     0.0000    -1.2340 ca         1 2UP      -0.022000
      8 CAH          1.3800    -0.0010    -2.4410 ca         1 2UP      -0.033000
      9 CAE          0.0230    -0.0010    -2.4220 ca         1 2UP      -0.167000
     10 CAK         -0.6800    -0.0070    -1.2050 ca         1 2UP      -0.192900
     11 CAJ         -2.1610    -0.0070    -1.2120 ce         1 2UP       0.215800
     12 NAB         -2.8180    -0.0120    -0.0870 n2         1 2UP      -0.504100
     13 NAA         -2.8440    -0.0030    -2.4080 nz         1 2UP       0.193400
     14 H1          -0.3450     0.0070     1.0270 ha         1 2UP       0.127000
     15 H2           1.6090     0.0000     2.1530 ha         1 2UP       0.116000
     16 H3           4.0480    -0.0000     2.0980 ha         1 2UP       0.119000
     17 H4           5.2600     0.0000    -0.0440 ha         1 2UP       0.119000
     18 H5           4.0530     0.0000    -2.1630 ha         1 2UP       0.121000
     19 H6           1.9700    -0.0010    -3.3490 ha         1 2UP       0.124000
     20 H7          -0.2960     0.0000    -3.4570 ha         1 2UP       0.112000
     21 H8          -2.3230    -0.0150     0.7830 hn         1 2UP       0.378400
     22 H9          -2.6000    -0.8180    -2.9340 hn         1 2UP       0.219800
     23 H10         -2.6010     0.8160    -2.9290 hn         1 2UP       0.219800
     24 HAA3        -3.8290    -0.0040    -2.2300 hn         1 2UP       0.219800
@<TRIPOS>BOND
     1     1     2 ar  
     2     1    10 ar  
     3     1    14 1   
     4     2     3 ar  
     5     2     7 ar  
     6     3     4 ar  
     7     3    15 1   
     8     4     5 ar  
     9     4    16 1   
    10     5     6 ar  
    11     5    17 1   
    12     6     7 ar  
    13     6    18 1   
    14     7     8 ar  
    15     8     9 ar  
    16     8    19 1   
    17     9    10 ar  
    18     9    20 1   
    19    10    11 1   
    20    11    12 2   
    21    11    13 1   
    22    12    21 1   
    23    13    22 1   
    24    13    23 1   
    25    13    24 1   
@<TRIPOS>SUBSTRUCTURE
     1 2UP         1 TEMP              0 ****  ****    0 ROOT
