@<TRIPOS>MOLECULE
molecule
   24    25     1     0     0
SMALL
bcc


@<TRIPOS>ATOM
      1 CAI          0.0000     0.0000     0.0000 ca         1 2UP       0.006000
      2 CAM          1.4030     0.0000     0.0000 ca         1 2UP      -0.061000
      3 CAG          2.1300     0.0000     1.2040 ca         1 2UP      -0.102000
      4 CAD          3.4900    -0.0000     1.1690 ca         1 2UP      -0.104000
      5 CAC          4.1770    -0.0000    -0.0440 ca         1 2UP      -0.081000
      6 CAF          3.5060     0.0000    -1.2280 ca         1 2UP      -0.122000
      7 CAL          2.1010     0.0000    -1.2340 ca         1 2UP      -0.011000
      8 CAH          1.3800    -0.0010    -2.4410 ca         1 2UP      -0.083000
      9 CAE          0.0230    -0.0010    -2.4220 ca         1 2UP      -0.200000
     10 CAK         -0.6800    -0.0070    -1.2050 ca         1 2UP      -0.180900
     11 CAJ         -2.1610    -0.0070    -1.2120 ce         1 2UP       0.547800
     12 NAB         -2.8180    -0.0120    -0.0870 n2         1 2UP      -0.697100
     13 NAA         -2.8440    -0.0030    -2.4080 nz         1 2UP      -0.798600
     14 H1          -0.4540     0.0030     0.9840 ha         1 2UP       0.171000
     15 H2           1.6090    -0.0000     2.1540 ha         1 2UP       0.149000
     16 H3           4.0480    -0.0000     2.0980 ha         1 2UP       0.153000
     17 H4           5.2600    -0.0000    -0.0440 ha         1 2UP       0.152000
     18 H5           4.0530     0.0000    -2.1630 ha         1 2UP       0.150000
     19 H6           1.8760    -0.0010    -3.4040 ha         1 2UP       0.153000
     20 H7          -0.2250     0.0000    -3.4770 ha         1 2UP       0.137000
     21 H8          -3.8180    -0.0120    -0.0910 hn         1 2UP       0.429400
     22 H9          -2.6000    -0.8180    -2.9350 hn         1 2UP       0.463800
     23 H10         -2.6000     0.8160    -2.9290 hn         1 2UP       0.463800
     24 HAA3        -3.8290    -0.0040    -2.2300 hn         1 2UP       0.463800
@<TRIPOS>BOND
     1     8     9 ar  
     2     8     7 ar  
     3     9    10 ar  
     4     6     7 ar  
     5     6     5 ar  
     6     7     2 ar  
     7     5     4 ar  
     8    10    11 1   
     9    10     1 ar  
    10    11    12 2   
    11    11    13 1   
    12     2     1 ar  
    13     2     3 ar  
    14     4     3 ar  
    15     1    14 1   
    16     3    15 1   
    17     4    16 1   
    18     5    17 1   
    19     6    18 1   
    20     8    19 1   
    21     9    20 1   
    22    12    21 1   
    23    13    22 1   
    24    13    23 1   
    25    24    13 1   
@<TRIPOS>SUBSTRUCTURE
     1 2UP         1 TEMP              0 ****  ****    0 ROOT
