@<TRIPOS>MOLECULE
molecule
   30    31     1     0     0
SMALL
bcc


@<TRIPOS>ATOM
      1 C1           0.0000     0.0000     0.0000 ca         1 2UQ      -0.399200
      2 C2           1.4010     0.0000     0.0000 ca         1 2UQ       0.494200
      3 C11         -4.3360    -0.0000    -2.2070 ca         1 2UQ      -0.123300
      4 C12          2.1370    -0.0010     3.5720 ce         1 2UQ       0.381200
      5 C14         -5.0130     1.1970    -2.0680 ca         1 2UQ      -0.111500
      6 C15         -6.3700     1.1970    -1.8010 ca         1 2UQ      -0.130000
      7 C16         -7.0480    -0.0010    -1.6700 ca         1 2UQ      -0.118000
      8 C17         -6.3710    -1.1980    -1.8070 ca         1 2UQ      -0.130000
      9 C18         -5.0130    -1.1970    -2.0750 ca         1 2UQ      -0.111500
     10 N3           2.0410     0.0000     1.1530 nb         1 2UQ      -0.712500
     11 C4           1.3770    -0.0010     2.3010 ca         1 2UQ       0.660700
     12 N5           0.0520    -0.0020     2.3440 nb         1 2UQ      -0.712500
     13 C6          -0.6630     0.0050     1.2350 ca         1 2UQ       0.494200
     14 C7          -0.7580     0.0010    -1.2690 c          1 2UQ       0.677700
     15 O8          -0.1670     0.0010    -2.3300 o          1 2UQ      -0.603100
     16 N9          -2.1060    -0.0000    -1.2470 ns         1 2UQ      -0.579900
     17 C10         -2.8580     0.0010    -2.5050 c3         1 2UQ       0.163300
     18 N13          1.5090    -0.0020     4.7000 n2         1 2UQ      -0.738100
     19 H1           1.9510    -0.0010    -0.9330 h4         1 2UQ       0.044600
     20 H2           3.2210    -0.0000     3.5560 h4         1 2UQ      -0.009200
     21 H3          -4.4820     2.1350    -2.1710 ha         1 2UQ       0.135000
     22 H4          -6.9010     2.1350    -1.6930 ha         1 2UQ       0.134000
     23 H5          -8.1110    -0.0010    -1.4600 ha         1 2UQ       0.133000
     24 H6          -6.9020    -2.1360    -1.7040 ha         1 2UQ       0.134000
     25 H7          -4.4820    -2.1350    -2.1840 ha         1 2UQ       0.135000
     26 H8          -1.7450     0.0050     1.2780 h4         1 2UQ       0.044600
     27 H9          -2.5920    -0.0260    -0.3730 hn         1 2UQ       0.318500
     28 H10         -2.6060     0.8860    -3.0760 h1         1 2UQ       0.061700
     29 H11         -2.6050    -0.8830    -3.0780 h1         1 2UQ       0.061700
     30 H12          2.0230    -0.0020     5.5590 hn         1 2UQ       0.405400
@<TRIPOS>BOND
     1    12    13 ar
     2    12    11 ar
     3    13     1 ar
     4     9     8 ar
     5     9     3 ar
     6     8     7 ar
     7    16    17 1
     8    16    14 1
     9    17     3 1
    10     3     5 ar
    11     4    11 1
    12     4    18 2
    13     7     6 ar
    14    11    10 ar
    15     1    14 1
    16     1     2 ar
    17     5     6 ar
    18    14    15 2
    19    10     2 ar
    20     2    19 1
    21     4    20 1
    22     5    21 1
    23     6    22 1
    24     7    23 1
    25     8    24 1
    26     9    25 1
    27    13    26 1
    28    16    27 1
    29    17    28 1
    30    17    29 1
    31    18    30 1
@<TRIPOS>SUBSTRUCTURE
     1 2UQ         1 TEMP              0 ****  ****    0 ROOT
