@<TRIPOS>MOLECULE
molecule
   25    26     1     0     0
SMALL
bcc


@<TRIPOS>ATOM
      1 O            0.0000     0.0000     0.0000 o          1 2UR      -0.404100
      2 C8           1.2160     0.0000     0.0000 c          1 2UR       0.503700
      3 N            1.8900     0.0000     1.1660 nz         1 2UR      -0.677400
      4 C7           1.9530    -0.0070    -1.2790 ca         1 2UR      -0.220600
      5 C6           3.3490    -0.0120    -1.2800 ca         1 2UR      -0.147000
      6 C5           4.0410    -0.0180    -2.4730 ca         1 2UR       0.136900
      7 F            5.3920    -0.0280    -2.4720 f          1 2UR      -0.107900
      8 C4           3.3470    -0.0150    -3.6770 ca         1 2UR      -0.052000
      9 C9           1.2500    -0.0130    -2.4970 ca         1 2UR       0.221100
     10 C3           1.9700    -0.0050    -3.6840 ca         1 2UR      -0.141300
     11 C2           0.9600     0.0190    -4.8160 c3         1 2UR      -0.063100
     12 O1          -0.0880    -0.0310    -2.7300 os         1 2UR      -0.277900
     13 C1          -0.3370     0.4240    -4.0760 c3         1 2UR       0.131100
     14 C           -1.5480    -0.2990    -4.6690 c3         1 2UR      -0.093100
     15 H1           2.4620    -0.8200     1.2210 hn         1 2UR       0.476467
     16 H2           2.4690     0.8150     1.2170 hn         1 2UR       0.476467
     17 H3           3.8900    -0.0110    -0.3410 ha         1 2UR       0.128000
     18 H4           3.8910    -0.0190    -4.6130 ha         1 2UR       0.180000
     19 H5           1.2290     0.7780    -5.5400 hc         1 2UR       0.091200
     20 H6           0.8530    -0.9710    -5.2410 hc         1 2UR       0.091200
     21 H7          -0.4720     1.4990    -4.0980 h1         1 2UR       0.081700
     22 H8          -1.6480    -0.0380    -5.7160 hc         1 2UR       0.064033
     23 H9          -2.4430    -0.0020    -4.1360 hc         1 2UR       0.064033
     24 H10         -1.4110    -1.3700    -4.5750 hc         1 2UR       0.064033
     25 HN3          1.2400     0.0000     1.9270 hn         1 2UR       0.476467
@<TRIPOS>BOND
     1     1     2 2   
     2     7     6 1   
     3     5     6 ar  
     4     5     4 ar  
     5     6     8 ar  
     6     2     4 1   
     7     2     3 1   
     8     4     9 ar  
     9     8    10 ar  
    10     9    10 ar  
    11     9    12 1   
    12    10    11 1   
    13    12    13 1   
    14    11    13 1   
    15    13    14 1   
    16     3    15 1   
    17     3    16 1   
    18     5    17 1   
    19     8    18 1   
    20    11    19 1   
    21    11    20 1   
    22    13    21 1   
    23    14    22 1   
    24    14    23 1   
    25    14    24 1   
    26    25     3 1   
@<TRIPOS>SUBSTRUCTURE
     1 2UR         1 TEMP              0 ****  ****    0 ROOT
