@<TRIPOS>MOLECULE
2UR
   25    26     1     0     0
SMALL
bcc


@<TRIPOS>ATOM
      1 O            0.0000     0.0000     0.0000 o          1 2UR      -0.421100
      2 C8           1.2160     0.0000     0.0000 c          1 2UR       0.351700
      3 N            1.8900     0.0000     1.1660 nz         1 2UR       0.200600
      4 C7           1.9530    -0.0070    -1.2790 ca         1 2UR      -0.247600
      5 C6           3.3490    -0.0120    -1.2800 ca         1 2UR      -0.111000
      6 C5           4.0410    -0.0180    -2.4730 ca         1 2UR       0.113900
      7 F            5.3920    -0.0280    -2.4720 f          1 2UR      -0.101900
      8 C4           3.3470    -0.0150    -3.6770 ca         1 2UR       0.001000
      9 C9           1.2500    -0.0130    -2.4970 ca         1 2UR       0.250100
     10 C3           1.9700    -0.0050    -3.6840 ca         1 2UR      -0.156300
     11 C2           0.9600     0.0190    -4.8160 c3         1 2UR       0.007900
     12 O1          -0.0880    -0.0310    -2.7300 os         1 2UR      -0.261900
     13 C1          -0.3370     0.4240    -4.0760 c3         1 2UR       0.172100
     14 C           -1.5480    -0.2990    -4.6690 c3         1 2UR       0.000900
     15 H1           2.4620    -0.8200     1.2210 hn         1 2UR       0.245800
     16 H2           2.4690     0.8150     1.2170 hn         1 2UR       0.245800
     17 H3           3.8900    -0.0110    -0.3410 ha         1 2UR       0.100000
     18 H4           3.8910    -0.0190    -4.6130 ha         1 2UR       0.140000
     19 H5           1.2290     0.7780    -5.5400 hc         1 2UR       0.054200
     20 H6           0.8530    -0.9710    -5.2410 hc         1 2UR       0.054200
     21 H7          -0.4720     1.4990    -4.0980 h1         1 2UR       0.040700
     22 H8          -1.6480    -0.0380    -5.7160 hc         1 2UR       0.025367
     23 H9          -2.4430    -0.0020    -4.1360 hc         1 2UR       0.025367
     24 H10         -1.4110    -1.3700    -4.5750 hc         1 2UR       0.025367
     25 HN3          1.2400     0.0000     1.9270 hn         1 2UR       0.245800
@<TRIPOS>BOND
     1     1     2 2   
     2     2     3 1   
     3     2     4 1   
     4     3    15 1   
     5     3    16 1   
     6     3    25 1   
     7     4     5 ar  
     8     4     9 ar  
     9     5     6 ar  
    10     5    17 1   
    11     6     7 1   
    12     6     8 ar  
    13     8    10 ar  
    14     8    18 1   
    15     9    10 ar  
    16     9    12 1   
    17    10    11 1   
    18    11    13 1   
    19    11    19 1   
    20    11    20 1   
    21    12    13 1   
    22    13    14 1   
    23    13    21 1   
    24    14    22 1   
    25    14    23 1   
    26    14    24 1   
@<TRIPOS>SUBSTRUCTURE
     1 2UR         1 TEMP              0 ****  ****    0 ROOT
