@<TRIPOS>MOLECULE
molecule
   34    36     1     0     0
SMALL
bcc


@<TRIPOS>ATOM
      1 O4           0.0000     0.0000     0.0000 o          1 2US      -0.461100
      2 C11          1.2190     0.0000     0.0000 c          1 2US       0.569900
      3 C12          2.1230     0.0000     1.1680 ca         1 2US      -0.259600
      4 C2           3.4280    -0.0000     0.6550 ca         1 2US       0.242100
      5 C13          1.9040     0.0010     2.5430 ca         1 2US       0.051000
      6 C14          2.9750     0.0010     3.4130 ca         1 2US      -0.157000
      7 C15          4.2690     0.0010     2.9270 ca         1 2US      -0.065000
      8 C1           4.5090     0.0010     1.5530 ca         1 2US      -0.246600
      9 C            5.8930     0.0010     1.0440 c          1 2US       0.504700
     10 O            6.1010    -0.0000    -0.1540 o          1 2US      -0.418100
     11 N            6.9280     0.0020     1.9070 nz         1 2US      -0.677400
     12 C3           2.1170    -0.0070    -1.1600 cc         1 2US      -0.113100
     13 O1           3.3880    -0.0010    -0.6920 os         1 2US      -0.161200
     14 C4           1.7420    -0.0150    -2.4670 cf         1 2US       0.060800
     15 C5           2.7500     0.1280    -3.5200 ca         1 2US      -0.131800
     16 C10          2.3640     0.4850    -4.8250 ca         1 2US       0.176100
     17 O3           1.0570     0.6990    -5.1150 oh         1 2US      -0.506100
     18 C9           3.3280     0.6170    -5.8110 ca         1 2US      -0.213000
     19 C8           4.6630     0.3970    -5.5070 ca         1 2US       0.162100
     20 O2           5.6060     0.5270    -6.4750 oh         1 2US      -0.516100
     21 C7           5.0430     0.0440    -4.2140 ca         1 2US      -0.190000
     22 C6           4.1050    -0.0850    -3.2310 ca         1 2US      -0.073000
     23 H1           0.8920     0.0010     2.9300 ha         1 2US       0.178000
     24 H2           2.8010     0.0020     4.4830 ha         1 2US       0.168000
     25 H3           5.1030     0.0020     3.6180 ha         1 2US       0.115000
     26 H4           6.8830    -0.8150     2.4840 hn         1 2US       0.475800
     27 H5           6.8820     0.8190     2.4830 hn         1 2US       0.475800
     28 H6           0.6900    -0.0170    -2.7270 ha         1 2US       0.194000
     29 H7           0.9530     1.5640    -5.4760 ho         1 2US       0.440000
     30 H8           3.0430     0.9250    -6.8090 ha         1 2US       0.163000
     31 H9           5.6900    -0.2870    -6.9440 ho         1 2US       0.435000
     32 H10          6.0880    -0.1250    -3.9870 ha         1 2US       0.147000
     33 H11          4.5870    -0.8750    -2.6680 ha         1 2US       0.157000
     34 HN3          7.7880    -0.0440     1.3970 hn         1 2US       0.475800
@<TRIPOS>BOND
     1     7     6 ar
     2     7     8 ar
     3     6     5 ar
     4    10     9 2
     5     9     8 1
     6     9    11 1
     7     8     4 ar
     8     5     3 ar
     9     4     3 ar
    10     4    13 1
    11     3     2 1
    12    13    12 1
    13     2     1 2
    14     2    12 1
    15    12    14 2
    16    17    16 1
    17    14    15 1
    18    16    15 ar
    19    16    18 ar
    20    15    22 ar
    21    18    19 ar
    22    22    21 ar
    23    19    21 ar
    24    19    20 1
    25     5    23 1
    26     6    24 1
    27     7    25 1
    28    11    26 1
    29    11    27 1
    30    14    28 1
    31    17    29 1
    32    18    30 1
    33    20    31 1
    34    21    32 1
    35    22    33 1
    36    34    11 1
@<TRIPOS>SUBSTRUCTURE
     1 2US         1 TEMP              0 ****  ****    0 ROOT
