@<TRIPOS>MOLECULE
2US
   34    36     1     0     0
SMALL
bcc


@<TRIPOS>ATOM
      1 O4           0.0000     0.0000     0.0000 o          1 2US      -0.495100
      2 C11          1.2190     0.0000     0.0000 c          1 2US       0.626900
      3 C12          2.1230     0.0000     1.1680 ca         1 2US      -0.278600
      4 C2           3.4280    -0.0000     0.6550 ca         1 2US       0.260100
      5 C13          1.9040     0.0010     2.5430 ca         1 2US       0.104000
      6 C14          2.9750     0.0010     3.4130 ca         1 2US      -0.130000
      7 C15          4.2690     0.0010     2.9270 ca         1 2US      -0.034000
      8 C1           4.5090     0.0010     1.5530 ca         1 2US      -0.275600
      9 C            5.8930     0.0010     1.0440 c          1 2US       0.353700
     10 O            6.1010    -0.0000    -0.1540 o          1 2US      -0.436100
     11 N            6.9280     0.0020     1.9070 nz         1 2US       0.200600
     12 C3           2.1170    -0.0070    -1.1600 cc         1 2US      -0.134100
     13 O1           3.3880    -0.0010    -0.6920 os         1 2US      -0.126200
     14 C4           1.7420    -0.0150    -2.4670 cf         1 2US       0.103800
     15 C5           2.7500     0.1280    -3.5200 ca         1 2US      -0.151800
     16 C10          2.3640     0.4850    -4.8250 ca         1 2US       0.206100
     17 O3           1.0570     0.6990    -5.1150 oh         1 2US      -0.485100
     18 C9           3.3280     0.6170    -5.8110 ca         1 2US      -0.213000
     19 C8           4.6630     0.3970    -5.5070 ca         1 2US       0.188100
     20 O2           5.6060     0.5270    -6.4750 oh         1 2US      -0.497100
     21 C7           5.0430     0.0440    -4.2140 ca         1 2US      -0.182000
     22 C6           4.1050    -0.0850    -3.2310 ca         1 2US      -0.050000
     23 H1           0.8920     0.0010     2.9300 ha         1 2US       0.132000
     24 H2           2.8010     0.0020     4.4830 ha         1 2US       0.134000
     25 H3           5.1030     0.0020     3.6180 ha         1 2US       0.081000
     26 H4           6.8820     0.8190     2.4830 hn         1 2US       0.245133
     27 H5           6.8830    -0.8150     2.4840 hn         1 2US       0.245133
     28 H6           0.6900    -0.0170    -2.7270 ha         1 2US       0.147000
     29 H7           0.9620     1.5390    -5.5330 ho         1 2US       0.421000
     30 H8           3.0340     0.8470    -6.8280 ha         1 2US       0.136000
     31 H9           5.6830    -0.2840    -6.9490 ho         1 2US       0.416000
     32 H10          6.0880    -0.1240    -3.9860 ha         1 2US       0.120000
     33 H11          4.5530    -0.8890    -2.6590 ha         1 2US       0.125000
     34 HN3          7.7880    -0.0460     1.3970 hn         1 2US       0.245133
@<TRIPOS>BOND
     1     1     2 2   
     2     2     3 1   
     3     2    12 1   
     4     3     4 ar  
     5     3     5 ar  
     6     4     8 ar  
     7     4    13 1   
     8     5     6 ar  
     9     5    23 1   
    10     6     7 ar  
    11     6    24 1   
    12     7     8 ar  
    13     7    25 1   
    14     8     9 1   
    15     9    10 2   
    16     9    11 1   
    17    11    26 1   
    18    11    27 1   
    19    11    34 1   
    20    12    13 1   
    21    12    14 2   
    22    14    15 1   
    23    14    28 1   
    24    15    16 ar  
    25    15    22 ar  
    26    16    17 1   
    27    16    18 ar  
    28    17    29 1   
    29    18    19 ar  
    30    18    30 1   
    31    19    20 1   
    32    19    21 ar  
    33    20    31 1   
    34    21    22 ar  
    35    21    32 1   
    36    22    33 1   
@<TRIPOS>SUBSTRUCTURE
     1 2US         1 TEMP              0 ****  ****    0 ROOT
