@<TRIPOS>MOLECULE
molecule
   52    55     1     0     0
SMALL
bcc


@<TRIPOS>ATOM
      1 O4           0.0000     0.0000     0.0000 o          1 2UT      -0.466100
      2 C17          1.2190     0.0000     0.0000 c          1 2UT       0.570900
      3 C18          2.1240     0.0000     1.1660 ca         1 2UT      -0.256600
      4 C2           3.4290    -0.0010     0.6530 ca         1 2UT       0.238100
      5 C19          1.9050     0.0020     2.5420 ca         1 2UT       0.050000
      6 C20          2.9780     0.0030     3.4120 ca         1 2UT      -0.156000
      7 C21          4.2700     0.0010     2.9250 ca         1 2UT      -0.065000
      8 C1           4.5090    -0.0010     1.5510 ca         1 2UT      -0.245600
      9 C            5.8950    -0.0020     1.0420 c          1 2UT       0.503700
     10 O            6.1010    -0.0040    -0.1570 o          1 2UT      -0.420100
     11 N            6.9300    -0.0030     1.9040 nz         1 2UT      -0.677400
     12 C3           2.1190    -0.0080    -1.1620 cc         1 2UT      -0.126100
     13 O1           3.3880    -0.0020    -0.6950 os         1 2UT      -0.166200
     14 C4           1.7430    -0.0170    -2.4670 cf         1 2UT       0.062800
     15 C5           2.7580     0.0910    -3.5230 ca         1 2UT      -0.166800
     16 C16          4.1190     0.0730    -3.1940 ca         1 2UT      -0.046500
     17 C15          5.0660     0.1740    -4.1880 ca         1 2UT      -0.204000
     18 C8           4.6730     0.2940    -5.5170 ca         1 2UT       0.188100
     19 C7           3.3230     0.3120    -5.8490 ca         1 2UT      -0.204000
     20 C6           2.3670     0.2050    -4.8630 ca         1 2UT      -0.046500
     21 O2           5.6110     0.3940    -6.4920 os         1 2UT      -0.300900
     22 C9           5.1390     0.5150    -7.8360 c3         1 2UT       0.134400
     23 C10          6.3320     0.6150    -8.7890 c3         1 2UT       0.162800
     24 N1           7.0930    -0.6420    -8.7540 n3         1 2UT      -0.723600
     25 C14          6.3030    -1.7510    -9.3090 c3         1 2UT       0.120300
     26 C13          7.1090    -3.0480    -9.2000 c3         1 2UT       0.140900
     27 O3           8.3590    -2.8850    -9.8740 os         1 2UT      -0.419600
     28 C12          9.1550    -1.8130    -9.3590 c3         1 2UT       0.140900
     29 C11          8.3700    -0.5040    -9.4690 c3         1 2UT       0.120300
     30 H1           0.8940     0.0030     2.9300 ha         1 2UT       0.177000
     31 H2           2.8050     0.0050     4.4810 ha         1 2UT       0.168000
     32 H3           5.1050     0.0030     3.6160 ha         1 2UT       0.115000
     33 H4           6.8860     0.8150     2.4790 hn         1 2UT       0.475800
     34 H5           6.8830    -0.8200     2.4810 hn         1 2UT       0.475800
     35 H6           0.6910    -0.0180    -2.7270 ha         1 2UT       0.181000
     36 H7           4.4260    -0.0200    -2.1590 ha         1 2UT       0.148000
     37 H8           6.1190     0.1600    -3.9340 ha         1 2UT       0.149500
     38 H9           3.0230     0.4030    -6.8850 ha         1 2UT       0.149500
     39 H10          1.3160     0.2190    -5.1230 ha         1 2UT       0.148000
     40 H11          4.5290     1.4060    -7.9250 h1         1 2UT       0.043200
     41 H12          4.5460    -0.3560    -8.0900 h1         1 2UT       0.043200
     42 H13          5.9760     0.7950    -9.7960 h1         1 2UT       0.053700
     43 H14          6.9730     1.4330    -8.4810 h1         1 2UT       0.053700
     44 H16          5.3800    -1.8510    -8.7510 h1         1 2UT       0.043700
     45 H17          6.0820    -1.5500   -10.3510 h1         1 2UT       0.043700
     46 H18          7.2890    -3.2740    -8.1560 h1         1 2UT       0.055200
     47 H19          6.5540    -3.8570    -9.6600 h1         1 2UT       0.055200
     48 H20         10.0690    -1.7350    -9.9340 h1         1 2UT       0.055200
     49 H21          9.3900    -2.0070    -8.3190 h1         1 2UT       0.055200
     50 H22          8.1770    -0.2860   -10.5130 h1         1 2UT       0.043700
     51 H23          8.9460     0.3000    -9.0260 h1         1 2UT       0.043700
     52 HN3          7.7900     0.0030     1.3920 hn         1 2UT       0.475800
@<TRIPOS>BOND
     1     6     7 ar
     2     6     5 ar
     3     7     8 ar
     4    10     9 2
     5     5     3 ar
     6     8     9 1
     7     8     4 ar
     8     9    11 1
     9     3     4 ar
    10     3     2 1
    11     4    13 1
    12    13    12 1
    13     2     1 2
    14     2    12 1
    15    12    14 2
    16    14    15 1
    17    20    15 ar
    18    20    19 ar
    19    15    16 ar
    20    19    18 ar
    21    26    27 1
    22    26    25 1
    23    27    28 1
    24    18    21 1
    25    18    17 ar
    26    16    17 ar
    27    25    24 1
    28    21    22 1
    29    28    29 1
    30    24    29 1
    31    24    23 1
    32    22    23 1
    33     5    30 1
    34     6    31 1
    35     7    32 1
    36    11    33 1
    37    11    34 1
    38    14    35 1
    39    16    36 1
    40    17    37 1
    41    19    38 1
    42    20    39 1
    43    22    40 1
    44    22    41 1
    45    23    42 1
    46    23    43 1
    47    25    44 1
    48    25    45 1
    49    26    46 1
    50    26    47 1
    51    28    48 1
    52    28    49 1
    53    29    50 1
    54    29    51 1
    55    52    11 1
@<TRIPOS>SUBSTRUCTURE
     1 2UT         1 TEMP              0 ****  ****    0 ROOT
