@<TRIPOS>MOLECULE
2UT
   52    55     1     0     0
SMALL
bcc


@<TRIPOS>ATOM
      1 O4           0.0000     0.0000     0.0000 o          1 2UT      -0.498100
      2 C17          1.2190     0.0000     0.0000 c          1 2UT       0.628900
      3 C18          2.1240     0.0000     1.1660 ca         1 2UT      -0.276600
      4 C2           3.4290    -0.0010     0.6530 ca         1 2UT       0.256100
      5 C19          1.9050     0.0020     2.5420 ca         1 2UT       0.104000
      6 C20          2.9780     0.0030     3.4120 ca         1 2UT      -0.129000
      7 C21          4.2700     0.0010     2.9250 ca         1 2UT      -0.035000
      8 C1           4.5090    -0.0010     1.5510 ca         1 2UT      -0.274600
      9 C            5.8950    -0.0020     1.0420 c          1 2UT       0.353700
     10 O            6.1010    -0.0040    -0.1570 o          1 2UT      -0.438100
     11 N            6.9300    -0.0030     1.9040 nz         1 2UT       0.201600
     12 C3           2.1190    -0.0080    -1.1620 cc         1 2UT      -0.145100
     13 O1           3.3880    -0.0020    -0.6950 os         1 2UT      -0.129200
     14 C4           1.7430    -0.0170    -2.4670 cf         1 2UT       0.107800
     15 C5           2.7580     0.0910    -3.5230 ca         1 2UT      -0.176800
     16 C16          4.1190     0.0730    -3.1940 ca         1 2UT      -0.020500
     17 C15          5.0660     0.1740    -4.1880 ca         1 2UT      -0.189000
     18 C8           4.6730     0.2940    -5.5170 ca         1 2UT       0.198100
     19 C7           3.3230     0.3120    -5.8490 ca         1 2UT      -0.189000
     20 C6           2.3670     0.2050    -4.8630 ca         1 2UT      -0.020500
     21 O2           5.6110     0.3940    -6.4920 os         1 2UT      -0.280900
     22 C9           5.1390     0.5150    -7.8360 c3         1 2UT       0.193400
     23 C10          6.3320     0.6150    -8.7890 c3         1 2UT       0.150800
     24 N1           7.0930    -0.6420    -8.7540 n3         1 2UT      -0.535600
     25 C14          6.3030    -1.7510    -9.3090 c3         1 2UT       0.106800
     26 C13          7.1090    -3.0480    -9.2000 c3         1 2UT       0.216400
     27 O3           8.3590    -2.8850    -9.8740 os         1 2UT      -0.406600
     28 C12          9.1550    -1.8130    -9.3590 c3         1 2UT       0.216400
     29 C11          8.3700    -0.5040    -9.4690 c3         1 2UT       0.106800
     30 H1           0.8940     0.0030     2.9300 ha         1 2UT       0.132000
     31 H2           2.8050     0.0050     4.4810 ha         1 2UT       0.134000
     32 H3           5.1050     0.0030     3.6160 ha         1 2UT       0.082000
     33 H4           6.8860     0.8150     2.4790 hn         1 2UT       0.245133
     34 H5           6.8830    -0.8200     2.4810 hn         1 2UT       0.245133
     35 H6           0.6910    -0.0180    -2.7270 ha         1 2UT       0.135000
     36 H7           4.4260    -0.0200    -2.1590 ha         1 2UT       0.117000
     37 H8           6.1190     0.1600    -3.9340 ha         1 2UT       0.125500
     38 H9           3.0230     0.4030    -6.8850 ha         1 2UT       0.125500
     39 H10          1.3160     0.2190    -5.1230 ha         1 2UT       0.117000
     40 H11          4.5460    -0.3560    -8.0900 h1         1 2UT       0.010200
     41 H12          4.5290     1.4060    -7.9250 h1         1 2UT       0.010200
     42 H13          6.9730     1.4330    -8.4810 h1         1 2UT       0.023200
     43 H14          5.9760     0.7950    -9.7960 h1         1 2UT       0.023200
     44 H16          6.0820    -1.5500   -10.3510 h1         1 2UT       0.018950
     45 H17          5.3800    -1.8510    -8.7510 h1         1 2UT       0.018950
     46 H18          6.5540    -3.8570    -9.6600 h1         1 2UT       0.013700
     47 H19          7.2890    -3.2740    -8.1560 h1         1 2UT       0.013700
     48 H20         10.0690    -1.7350    -9.9340 h1         1 2UT       0.013700
     49 H21          9.3900    -2.0070    -8.3190 h1         1 2UT       0.013700
     50 H22          8.9460     0.3000    -9.0260 h1         1 2UT       0.018950
     51 H23          8.1770    -0.2860   -10.5130 h1         1 2UT       0.018950
     52 HN3          7.7900    -0.0030     1.3920 hn         1 2UT       0.245133
@<TRIPOS>BOND
     1     1     2 2   
     2     2     3 1   
     3     2    12 1   
     4     3     4 ar  
     5     3     5 ar  
     6     4     8 ar  
     7     4    13 1   
     8     5     6 ar  
     9     5    30 1   
    10     6     7 ar  
    11     6    31 1   
    12     7     8 ar  
    13     7    32 1   
    14     8     9 1   
    15     9    10 2   
    16     9    11 1   
    17    11    33 1   
    18    11    34 1   
    19    11    52 1   
    20    12    13 1   
    21    12    14 2   
    22    14    15 1   
    23    14    35 1   
    24    15    16 ar  
    25    15    20 ar  
    26    16    17 ar  
    27    16    36 1   
    28    17    18 ar  
    29    17    37 1   
    30    18    19 ar  
    31    18    21 1   
    32    19    20 ar  
    33    19    38 1   
    34    20    39 1   
    35    21    22 1   
    36    22    23 1   
    37    22    40 1   
    38    22    41 1   
    39    23    24 1   
    40    23    42 1   
    41    23    43 1   
    42    24    25 1   
    43    24    29 1   
    44    25    26 1   
    45    25    44 1   
    46    25    45 1   
    47    26    27 1   
    48    26    46 1   
    49    26    47 1   
    50    27    28 1   
    51    28    29 1   
    52    28    48 1   
    53    28    49 1   
    54    29    50 1   
    55    29    51 1   
@<TRIPOS>SUBSTRUCTURE
     1 2UT         1 TEMP              0 ****  ****    0 ROOT
