@<TRIPOS>MOLECULE
molecule
   59    63     1     0     0
SMALL
bcc


@<TRIPOS>ATOM
      1 C1           0.0000     0.0000     0.0000 ca         1 2UU      -0.139000
      2 C2          10.2100    -0.0000    11.8370 ca         1 2UU      -0.156000
      3 C3          10.1060     1.1120    12.6660 ca         1 2UU      -0.112000
      4 C4           1.3830     0.0000     0.0000 ca         1 2UU      -0.122000
      5 C5          -0.6940     0.0070     1.1960 ca         1 2UU      -0.122000
      6 C6           9.3660    -0.1330    10.7440 ca         1 2UU      -0.089000
      7 C7           9.1580     2.0880    12.4010 ca         1 2UU      -0.141000
      8 C8           7.7930    -0.0000     8.0730 ca         1 2UU      -0.364000
      9 C9           6.6000     1.7000     9.1040 ca         1 2UU      -0.314000
     10 C10          7.9870    -0.7020     6.8930 ca         1 2UU       0.052000
     11 C11          6.4960     2.8110     9.9340 ca         1 2UU      -0.083000
     12 C12          2.0750     0.0000     1.1960 ca         1 2UU      -0.138000
     13 C13         -0.0070     0.0130     2.3950 ca         1 2UU      -0.138000
     14 C14          2.7050    -1.1670     5.5410 ca         1 2UU      -0.204500
     15 C15          1.5880    -2.3180     3.7520 ca         1 2UU      -0.204500
     16 C16          2.7560    -2.3430     6.2620 ca         1 2UU       0.002000
     17 C17          1.6480    -3.4930     4.4760 ca         1 2UU       0.002000
     18 C18          5.7570    -1.2100     8.4570 ca         1 2UU      -0.090000
     19 C19          8.4050     0.8560    10.4750 ca         1 2UU      -0.107000
     20 C20          8.3020     1.9550    11.2950 ca         1 2UU       0.057000
     21 C21          6.6770    -0.2540     8.8540 cp         1 2UU      -0.031000
     22 C22          7.5480     0.7230     9.3680 cp         1 2UU       0.208000
     23 C23          7.0670    -1.6580     6.4960 ca         1 2UU      -0.181600
     24 C24          7.3410     2.9430    11.0260 ca         1 2UU      -0.180300
     25 C25          5.9520    -1.9120     7.2770 ca         1 2UU       0.218600
     26 C26          1.3810     0.0020     2.3970 ca         1 2UU       0.112100
     27 C27          2.1170    -1.1490     4.2840 ca         1 2UU       0.165100
     28 C28          2.2290    -3.5050     5.7310 ca         1 2UU      -0.255500
     29 C30          6.9070     4.2130    11.7470 c3         1 2UU      -0.024800
     30 N31          3.6520    -5.9410     6.1010 nu         1 2UU      -1.040500
     31 O32          7.1840    -3.4100     4.8380 o          1 2UU      -0.713800
     32 O33          2.4080    -4.7580     8.0800 o          1 2UU      -0.663300
     33 O34          1.0770    -5.7680     6.5540 o          1 2UU      -0.663300
     34 O35          8.9130    -2.0930     5.0020 o          1 2UU      -0.713800
     35 O36          2.0590     0.0080     3.5750 os         1 2UU      -0.255200
     36 S37          2.3280    -5.0110     6.6410 sy         1 2UU       1.297200
     37 H1          -0.5420     0.0110    -0.9380 ha         1 2UU       0.125000
     38 H2          10.9500    -0.7640    12.0460 ha         1 2UU       0.130000
     39 H3          10.7660     1.2150    13.5190 ha         1 2UU       0.123000
     40 H4           1.9240     0.0050    -0.9380 ha         1 2UU       0.130000
     41 H5          -1.7770     0.0180     1.1950 ha         1 2UU       0.130000
     42 H6           9.4460    -1.0000    10.0990 ha         1 2UU       0.143000
     43 H7           9.0750     2.9520    13.0490 ha         1 2UU       0.131000
     44 H8           8.4880     0.8220     8.1890 ha         1 2UU       0.257000
     45 H9           5.9040     1.8720     8.2930 ha         1 2UU       0.155000
     46 H10          8.8640    -0.3580     6.3580 ha         1 2UU       0.179000
     47 H11          5.7070     3.5080     9.6780 ha         1 2UU       0.125000
     48 H12          3.1590     0.0000     1.1940 ha         1 2UU       0.148000
     49 H13         -0.5520     0.0180     3.3310 ha         1 2UU       0.148000
     50 H14          3.1210    -0.2580     5.9580 ha         1 2UU       0.137500
     51 H15          1.1330    -2.3090     2.7700 ha         1 2UU       0.137500
     52 H16          3.2150    -2.3580     7.2440 ha         1 2UU       0.148000
     53 H17          1.2360    -4.4050     4.0620 ha         1 2UU       0.148000
     54 H18          5.2170    -1.7590     9.2190 ha         1 2UU       0.169000
     55 H19          7.7800     4.8120    11.9790 hc         1 2UU       0.032700
     56 H20          6.2390     4.7800    11.1110 hc         1 2UU       0.032700
     57 H21          6.3950     3.9490    12.6650 hc         1 2UU       0.032700
     58 H31          4.1720    -6.7700     5.8900 hn         1 2UU       0.468800
     59 C29          7.7580    -2.4250     5.3720 c          1 2UU       0.901200
@<TRIPOS>BOND
     1    34    59 1
     2    59    31 1
     3    59    23 1
     4    10    23 ar
     5    10     8 ar
     6    23    25 ar
     7     8    21 ar
     8    25    30 1
     9    25    18 ar
    10    21    18 ar
    11    21    22 1
    12    30    36 1
    13    22     9 ar
    14    22    19 ar
    15     9    11 ar
    16    17    15 ar
    17    17    28 ar
    18    15    27 ar
    19     6    19 ar
    20     6     2 ar
    21    33    36 2
    22    19    20 ar
    23    36    28 1
    24    36    32 2
    25    28    16 ar
    26    11    24 ar
    27    27    35 1
    28    27    14 ar
    29    35    26 1
    30     2     3 ar
    31    20    24 ar
    32    20     7 ar
    33    16    14 ar
    34    24    29 1
    35    13    26 ar
    36    13     5 ar
    37     3     7 ar
    38    26    12 ar
    39     5     1 ar
    40    12     4 ar
    41     1     4 ar
    42     1    37 1
    43     2    38 1
    44     3    39 1
    45     4    40 1
    46     5    41 1
    47     6    42 1
    48     7    43 1
    49     8    44 1
    50     9    45 1
    51    10    46 1
    52    11    47 1
    53    12    48 1
    54    13    49 1
    55    14    50 1
    56    15    51 1
    57    16    52 1
    58    17    53 1
    59    18    54 1
    60    29    55 1
    61    29    56 1
    62    29    57 1
    63    30    58 1
@<TRIPOS>SUBSTRUCTURE
     1 2UU         1 TEMP              0 ****  ****    0 ROOT
