@<TRIPOS>MOLECULE
2UV
   34    35     1     0     0
SMALL
bcc


@<TRIPOS>ATOM
      1 C1          0.1430   -0.2820   -0.0830 ca        1 2UV     -0.133500
      2 C2          0.0180   -0.5740    2.3090 ca        1 2UV     -0.133500
      3 C3         -2.7620    0.3750    0.0700 ca        1 2UV     -0.093000
      4 C4          1.5330   -0.2730   -0.0090 ca        1 2UV     -0.129000
      5 C5          1.4070   -0.5670    2.3800 ca        1 2UV     -0.129000
      6 C6         -4.1480    0.3800    0.0030 ca        1 2UV     -0.216000
      7 C7         -2.8510   -1.2360    1.8670 ca        1 2UV     -0.045000
      8 C8         -0.6370   -0.4290    1.0750 cp        1 2UV      0.016000
      9 C9         -2.0930   -0.4320    1.0020 cp        1 2UV     -0.139000
     10 C10        -4.2440   -1.2520    1.8230 ca        1 2UV     -0.221600
     11 C11         2.1800   -0.4140    1.2230 ca        1 2UV     -0.109300
     12 C12        -4.8970   -0.4350    0.8780 ca        1 2UV      0.191100
     13 C13        -4.9920   -2.1420    2.7970 c         1 2UV      0.918200
     14 C14         5.7020    0.8490    2.0130 c3        1 2UV     -0.092100
     15 C15         3.6660   -0.4160    1.3060 c3        1 2UV     -0.027100
     16 C16         4.1990    0.8740    1.9010 c3        1 2UV     -0.079400
     17 O17        -6.2610   -2.1770    2.7320 o         1 2UV     -0.831800
     18 O18        -6.2520   -0.3590    0.7310 oh        1 2UV     -0.549100
     19 O19        -4.3240   -2.8090    3.6330 o         1 2UV     -0.831800
     20 H1         -0.3510   -0.1830   -1.0600 ha        1 2UV      0.138000
     21 H2         -0.5790   -0.6940    3.2270 ha        1 2UV      0.138000
     22 H3         -2.1860    1.0210   -0.6080 ha        1 2UV      0.109000
     23 H4          2.1260   -0.1590   -0.9280 ha        1 2UV      0.117500
     24 H5          1.9050   -0.6830    3.3530 ha        1 2UV      0.117500
     25 H6         -4.6760    1.0120   -0.7220 ha        1 2UV      0.125000
     26 H7         -2.3580   -1.8910    2.6070 ha        1 2UV      0.157000
     27 H8          6.0750    1.8060    2.4520 hc        1 2UV      0.027033
     28 H9          6.1700    0.7160    1.0080 hc        1 2UV      0.027033
     29 H10         6.0350    0.0070    2.6670 hc        1 2UV      0.027033
     30 H11         4.1090   -0.5630    0.2850 hc        1 2UV      0.038700
     31 H12         4.0010   -1.2810    1.9400 hc        1 2UV      0.038700
     32 H13         3.7450    1.0280    2.9160 hc        1 2UV      0.043700
     33 H14         3.8810    1.7390    1.2620 hc        1 2UV      0.043700
     34 H16        -6.6790   -0.9630    1.3780 ho        1 2UV      0.485000
@<TRIPOS>BOND
     1    1    4 ar  
     2    1    8 ar  
     3    1   20 1   
     4    2    5 ar  
     5    2    8 ar  
     6    2   21 1   
     7    3    6 ar  
     8    3    9 ar  
     9    3   22 1   
    10    4   11 ar  
    11    4   23 1   
    12    5   11 ar  
    13    5   24 1   
    14    6   12 ar  
    15    6   25 1   
    16    7    9 ar  
    17    7   10 ar  
    18    7   26 1   
    19    8    9 1   
    20   10   12 ar  
    21   10   13 1   
    22   11   15 1   
    23   12   18 1   
    24   13   17 1   
    25   13   19 1   
    26   14   16 1   
    27   14   27 1   
    28   14   28 1   
    29   14   29 1   
    30   15   16 1   
    31   15   30 1   
    32   15   31 1   
    33   16   32 1   
    34   16   33 1   
    35   18   34 1   
@<TRIPOS>SUBSTRUCTURE
     1 2UV         1 TEMP              0 ****  ****    0 ROOT
