@<TRIPOS>MOLECULE
molecule
   34    35     1     0     0
SMALL
bcc


@<TRIPOS>ATOM
      1 C1           0.0000     0.0000     0.0000 ca         1 2UV      -0.128500
      2 C2           0.0110    -0.0010     2.4100 ca         1 2UV      -0.128500
      3 C3          -2.8730     0.0480     0.0200 ca         1 2UV      -0.105000
      4 C4           1.3800     0.0000     0.0000 ca         1 2UV      -0.137500
      5 C5           1.3910    -0.0010     2.3980 ca         1 2UV      -0.137500
      6 C6          -4.2580     0.0720     0.0190 ca         1 2UV      -0.227000
      7 C7          -2.9120    -2.2390    -0.7040 ca         1 2UV      -0.085000
      8 C8          -0.6940    -0.0010     1.2080 cp         1 2UV      -0.128000
      9 C9          -2.2000    -1.1070    -0.3420 cp         1 2UV      -0.021000
     10 C10         -4.2970    -2.2150    -0.7050 ca         1 2UV      -0.119600
     11 C11          2.0750     0.0000     1.1960 ca         1 2UV      -0.115300
     12 C12         -4.9700    -1.0600    -0.3430 ca         1 2UV       0.137100
     13 C13         -5.1700    -3.4570    -0.8770 c          1 2UV       0.904200
     14 C14          5.8070     0.8290     1.5140 c3         1 2UV      -0.094100
     15 C15          3.5810    -0.2480     1.1870 c3         1 2UV      -0.029100
     16 C16          4.3170     1.0860     1.2960 c3         1 2UV      -0.080400
     17 O17         -4.6710    -4.6030    -0.7270 o          1 2UV      -0.803300
     18 O18         -6.3640    -0.9930    -0.4690 oh         1 2UV      -0.479100
     19 O19         -6.3890    -3.3330    -1.1640 o          1 2UV      -0.803300
     20 H1          -0.5410    -0.0420    -0.9370 ha         1 2UV       0.136000
     21 H2          -0.5220    -0.0020     3.3530 ha         1 2UV       0.136000
     22 H3          -2.3170     0.9340     0.3030 ha         1 2UV       0.145000
     23 H4           1.9210    -0.0230    -0.9380 ha         1 2UV       0.117500
     24 H5           1.9410    -0.0270     3.3310 ha         1 2UV       0.117500
     25 H6          -4.7850     0.9680     0.3250 ha         1 2UV       0.123000
     26 H7          -2.3850    -3.1260    -1.0350 ha         1 2UV       0.157000
     27 H8           6.3390     1.7720     1.5200 hc         1 2UV       0.028033
     28 H9           6.1860     0.2050     0.7140 hc         1 2UV       0.028033
     29 H10          5.9510     0.3260     2.4630 hc         1 2UV       0.028033
     30 H11          3.8490    -0.8780     2.0270 hc         1 2UV       0.042200
     31 H12          3.8610    -0.7400     0.2630 hc         1 2UV       0.042200
     32 H13          3.9220     1.6490     2.1330 hc         1 2UV       0.042700
     33 H14          4.1780     1.6510     0.3830 hc         1 2UV       0.042700
     34 H16         -6.5900    -0.3420    -1.1130 ho         1 2UV       0.396000
@<TRIPOS>BOND
     1    18    12 1   
     2    19    13 1   
     3    12     6 ar  
     4    12    10 ar  
     5     6     3 ar  
     6    13    10 1   
     7    13    17 1   
     8    10     7 ar  
     9     3     9 ar  
    10     7     9 ar  
    11     9     8 1   
    12     1     8 ar  
    13     1     4 ar  
    14     8     2 ar  
    15     4    11 ar  
    16    16    14 1   
    17    16    15 1   
    18     2     5 ar  
    19    11     5 ar  
    20    11    15 1   
    21     1    20 1   
    22     2    21 1   
    23     3    22 1   
    24     4    23 1   
    25     5    24 1   
    26     6    25 1   
    27     7    26 1   
    28    14    27 1   
    29    14    28 1   
    30    14    29 1   
    31    15    30 1   
    32    15    31 1   
    33    16    32 1   
    34    16    33 1   
    35    18    34 1   
@<TRIPOS>SUBSTRUCTURE
     1 2UV         1 TEMP              0 ****  ****    0 ROOT
