@<TRIPOS>MOLECULE
molecule
   42    44     1     0     0
SMALL
bcc


@<TRIPOS>ATOM
      1 C16          0.0000     0.0000     0.0000 ca         1 2UW       0.036000
      2 C15          1.3840     0.0000     0.0000 ca         1 2UW      -0.326300
      3 C14          2.0600     0.0000     1.2160 ca         1 2UW       0.742200
      4 N3           3.4500     0.0000     1.2310 nv         1 2UW      -1.023500
      5 N2           1.3910     0.0010     2.3590 nb         1 2UW      -0.761000
      6 C13          0.0720     0.0000     2.3890 ca         1 2UW       0.559200
      7 C12         -0.6620     0.0050     1.2200 ca         1 2UW      -0.476800
      8 S2          -2.4240     0.0050     1.2750 sy         1 2UW       1.326600
      9 O2          -2.8640    -0.5340     0.0370 o          1 2UW      -0.622800
     10 O3          -2.7850    -0.5450     2.5350 o          1 2UW      -0.622800
     11 C1          -2.9450     1.6880     1.2990 cc         1 2UW      -0.266600
     12 S1          -3.1980     2.6490     2.7500 ss         1 2UW       0.022200
     13 C2          -3.2020     2.4280     0.2170 cd         1 2UW      -0.034000
     14 C4          -3.5970     3.7240     0.4750 cd         1 2UW      -0.137000
     15 C3          -3.6600     4.0430     1.7830 cc         1 2UW      -0.084600
     16 C5          -4.0520     5.3620     2.3220 ca         1 2UW       0.522800
     17 C9          -4.7630     5.4370     3.5220 ca         1 2UW      -0.101900
     18 C8          -5.1230     6.6810     4.0130 ca         1 2UW      -0.036000
     19 Cl1         -5.1890     3.9920     4.3860 cl         1 2UW      -0.065400
     20 N1          -3.7220     6.4680     1.6630 nb         1 2UW      -0.663000
     21 C6          -4.0530     7.6620     2.1110 ca         1 2UW       0.443200
     22 C7          -4.7620     7.8090     3.2890 ca         1 2UW      -0.216600
     23 C10         -5.1340     9.1820     3.7860 c3         1 2UW       0.169100
     24 C17         -6.1420     9.8160     2.8250 c3         1 2UW       0.588900
     25 F2          -6.5820    11.0370     3.3500 f          1 2UW      -0.219967
     26 F3          -5.5300    10.0350     1.5860 f          1 2UW      -0.219967
     27 F1          -7.2340     8.9580     2.6610 f          1 2UW      -0.219967
     28 C11         -3.8800    10.0550     3.8590 c3         1 2UW      -0.123100
     29 O1          -5.7180     9.0760     5.0860 oh         1 2UW      -0.579800
     30 H1          -0.5540     0.0020    -0.9310 ha         1 2UW       0.156000
     31 H2           1.9330    -0.0040    -0.9340 ha         1 2UW       0.144000
     32 H3           3.9580     0.5130     0.5380 hn         1 2UW       0.444300
     33 H4           3.9420    -0.5080     1.9390 hn         1 2UW       0.444300
     34 H5          -0.4420     0.0020     3.3430 h4         1 2UW       0.043100
     35 H6          -3.1090     2.0380    -0.7900 ha         1 2UW       0.162000
     36 H7          -3.8370     4.4300    -0.3110 ha         1 2UW       0.167000
     37 H8          -5.6760     6.7720     4.9400 ha         1 2UW       0.179000
     38 H9          -3.7690     8.5420     1.5450 h4         1 2UW       0.041100
     39 H10         -3.5410    10.2850     2.8570 hc         1 2UW       0.062033
     40 H11         -3.1010     9.5220     4.3910 hc         1 2UW       0.062033
     41 H12         -4.1100    10.9750     4.3830 hc         1 2UW       0.062033
     42 H13         -5.9980     9.9280     5.3760 ho         1 2UW       0.425000
@<TRIPOS>BOND
     1    10     8 2   
     2     6     5 ar  
     3     6     7 ar  
     4     5     3 ar  
     5     8     7 1   
     6     8     9 2   
     7     8    11 1   
     8     7     1 ar  
     9     3     4 1   
    10     3     2 ar  
    11     1     2 ar  
    12    11    12 1   
    13    11    13 2   
    14    12    15 1   
    15    19    17 1   
    16    13    14 1   
    17    15    14 2   
    18    15    16 1   
    19    17    16 ar  
    20    17    18 ar  
    21    16    20 ar  
    22    18    22 ar  
    23    20    21 ar  
    24    22    21 ar  
    25    22    23 1   
    26    29    23 1   
    27    26    24 1   
    28    23    24 1   
    29    23    28 1   
    30    24    27 1   
    31    24    25 1   
    32     1    30 1   
    33     2    31 1   
    34     4    32 1   
    35     4    33 1   
    36     6    34 1   
    37    13    35 1   
    38    14    36 1   
    39    18    37 1   
    40    21    38 1   
    41    28    39 1   
    42    28    40 1   
    43    28    41 1   
    44    29    42 1   
@<TRIPOS>SUBSTRUCTURE
     1 2UW         1 TEMP              0 ****  ****    0 ROOT
