@<TRIPOS>MOLECULE
2UX
   46    48     1     0     0
SMALL
bcc


@<TRIPOS>ATOM
      1 C19          0.0000     0.0000     0.0000 ca         1 2UX       0.086000
      2 C18          1.3830     0.0000     0.0000 ca         1 2UX      -0.337300
      3 C17          2.0600     0.0000     1.2150 ca         1 2UX       0.547200
      4 N2           3.4500     0.0020     1.2290 nv         1 2UX      -0.510500
      5 N1           1.3920     0.0010     2.3580 nb         1 2UX      -0.681000
      6 C16          0.0730    -0.0000     2.3880 ca         1 2UX       0.560200
      7 C15         -0.6620     0.0040     1.2210 ca         1 2UX      -0.338800
      8 S1          -2.4240     0.0040     1.2780 sy         1 2UX       0.973600
      9 O2          -2.8640    -0.5360     0.0400 o          1 2UX      -0.592800
     10 O3          -2.7830    -0.5470     2.5370 o          1 2UX      -0.592800
     11 C5          -2.9450     1.6860     1.3020 ca         1 2UX      -0.143500
     12 C6          -3.1050     2.3410     2.5100 ca         1 2UX       0.005500
     13 C1          -3.5140     3.6590     2.5350 ca         1 2UX      -0.132000
     14 C4          -3.1880     2.3490     0.1120 ca         1 2UX       0.005500
     15 C3          -3.5970     3.6670     0.1250 ca         1 2UX      -0.132000
     16 C2          -3.7640     4.3300     1.3390 cp         1 2UX       0.019000
     17 C7          -4.2040     5.7470     1.3590 cp         1 2UX      -0.034000
     18 C12         -4.3610     6.4140     2.5730 ca         1 2UX      -0.093000
     19 C11         -4.7700     7.7320     2.5860 ca         1 2UX      -0.072500
     20 C8          -4.4550     6.4190     0.1650 ca         1 2UX      -0.093000
     21 C9          -4.8640     7.7370     0.1890 ca         1 2UX      -0.072500
     22 C10         -5.0230     8.3920     1.3970 ca         1 2UX      -0.115300
     23 C13         -5.4710     9.8310     1.4180 c3         1 2UX       0.180100
     24 C20         -6.9080     9.9260     0.9020 c3         1 2UX       0.553900
     25 F2          -7.3640    11.2410     1.0340 f          1 2UX      -0.203967
     26 F3          -6.9470     9.5520    -0.4440 f          1 2UX      -0.203967
     27 F1          -7.7280     9.0710     1.6480 f          1 2UX      -0.203967
     28 C14         -4.5510    10.6620     0.5210 c3         1 2UX      -0.039100
     29 O1          -5.4100    10.3300     2.7560 oh         1 2UX      -0.562800
     30 H1          -0.5540     0.0020    -0.9310 ha         1 2UX       0.121000
     31 H2           1.9320    -0.0030    -0.9340 ha         1 2UX       0.121000
     32 H3           3.9600     0.0010     0.3670 hn         1 2UX       0.272800
     33 H4           3.9420     0.0010     2.1000 hn         1 2UX       0.272800
     34 H5          -0.4390     0.0020     3.3430 h4         1 2UX      -0.004900
     35 H6          -2.9100     1.8180     3.4380 ha         1 2UX       0.122500
     36 H7          -3.6400     4.1710     3.4810 ha         1 2UX       0.117500
     37 H8          -3.0580     1.8320    -0.8310 ha         1 2UX       0.122500
     38 H9          -3.7890     4.1850    -0.8070 ha         1 2UX       0.117500
     39 H10         -4.1630     5.8980     3.5050 ha         1 2UX       0.115500
     40 H11         -4.8950     8.2500     3.5290 ha         1 2UX       0.123000
     41 H12         -4.3300     5.9070    -0.7820 ha         1 2UX       0.115500
     42 H13         -5.0620     8.2590    -0.7400 ha         1 2UX       0.123000
     43 H14         -4.7080    10.3840    -0.5140 hc         1 2UX       0.028367
     44 H15         -3.5190    10.4780     0.7920 hc         1 2UX       0.028367
     45 H16         -4.7760    11.7140     0.6490 hc         1 2UX       0.028367
     46 H17         -5.2440    11.2580     2.7380 ho         1 2UX       0.408000
@<TRIPOS>BOND
     1     1     2 ar  
     2     1     7 ar  
     3     1    30 1   
     4     2     3 ar  
     5     2    31 1   
     6     3     4 1   
     7     3     5 ar  
     8     4    32 1   
     9     4    33 1   
    10     5     6 ar  
    11     6     7 ar  
    12     6    34 1   
    13     7     8 1   
    14     8     9 2   
    15     8    10 2   
    16     8    11 1   
    17    11    12 ar  
    18    11    14 ar  
    19    12    13 ar  
    20    12    35 1   
    21    13    16 ar  
    22    13    36 1   
    23    14    15 ar  
    24    14    37 1   
    25    15    16 ar  
    26    15    38 1   
    27    16    17 1   
    28    17    18 ar  
    29    17    20 ar  
    30    18    19 ar  
    31    18    39 1   
    32    19    22 ar  
    33    19    40 1   
    34    20    21 ar  
    35    20    41 1   
    36    21    22 ar  
    37    21    42 1   
    38    22    23 1   
    39    23    24 1   
    40    23    28 1   
    41    23    29 1   
    42    24    25 1   
    43    24    26 1   
    44    24    27 1   
    45    28    43 1   
    46    28    44 1   
    47    28    45 1   
    48    29    46 1   
@<TRIPOS>SUBSTRUCTURE
     1 2UX         1 TEMP              0 ****  ****    0 ROOT
