@<TRIPOS>MOLECULE
molecule
   56    59     1     0     0
SMALL
bcc


@<TRIPOS>ATOM
      1 C18          0.0000     0.0000     0.0000 ca         1 2UY      -0.131000
      2 C19          1.3820     0.0000     0.0000 ca         1 2UY      -0.115500
      3 C20          2.0740     0.0000     1.1970 ca         1 2UY      -0.137000
      4 C21          1.3880    -0.0000     2.3970 ca         1 2UY      -0.115500
      5 C22          0.0070    -0.0000     2.4040 ca         1 2UY      -0.131000
      6 C17         -0.6930     0.0050     1.2030 ca         1 2UY       0.145600
      7 N3          -2.0900     0.0050     1.2070 nu         1 2UY      -0.765300
      8 C6          -2.7820    -0.8970     2.0040 ca         1 2UY       0.713200
      9 N2          -2.1210    -1.6620     2.8580 nb         1 2UY      -0.668000
     10 C10         -2.7400    -2.5310     3.6340 ca         1 2UY       0.265200
     11 S1          -1.7990    -3.5180     4.7490 sy         1 2UY       1.229200
     12 O2          -2.5790    -4.6760     5.0170 o          1 2UY      -0.609800
     13 O3          -0.4800    -3.5740     4.2220 o          1 2UY      -0.609800
     14 C12         -1.6900    -2.6300     6.2670 ca         1 2UY      -0.475800
     15 C16         -0.6440    -1.7440     6.4890 ca         1 2UY       0.040000
     16 C15         -0.5960    -1.0670     7.6930 ca         1 2UY      -0.326300
     17 C14         -1.5920    -1.2950     8.6380 ca         1 2UY       0.741200
     18 N5          -1.5560    -0.6200     9.8540 nv         1 2UY      -1.023500
     19 N4          -2.5740    -2.1480     8.3890 nb         1 2UY      -0.762000
     20 C13         -2.6470    -2.8040     7.2460 ca         1 2UY       0.555200
     21 C9          -4.1120    -2.6810     3.5870 ca         1 2UY      -0.230300
     22 C8          -4.8530    -1.9040     2.7100 ca         1 2UY      -0.050000
     23 C7          -4.1770    -0.9880     1.9020 cp         1 2UY      -0.289800
     24 C4          -4.9220    -0.1340     0.9470 cp         1 2UY       0.490800
     25 C3          -6.1100     0.4770     1.3460 ca         1 2UY      -0.243300
     26 C2          -6.7900     1.2770     0.4440 ca         1 2UY      -0.041000
     27 N1          -4.4480     0.0500    -0.2800 nb         1 2UY      -0.697000
     28 C5          -5.0790     0.8020    -1.1580 ca         1 2UY       0.444200
     29 C1          -6.2600     1.4400    -0.8270 ca         1 2UY      -0.251600
     30 C11         -6.9680     2.3030    -1.8420 c3         1 2UY       0.163100
     31 C24         -7.9950     1.4600    -2.5990 c3         1 2UY       0.619900
     32 F2          -8.7310     2.2830    -3.4580 f          1 2UY      -0.218300
     33 F3          -7.3340     0.4790    -3.3470 f          1 2UY      -0.218300
     34 F1          -8.8590     0.8460    -1.6860 f          1 2UY      -0.218300
     35 C23         -5.9470     2.8710    -2.8280 c3         1 2UY      -0.135100
     36 O1          -7.6320     3.3750    -1.1720 oh         1 2UY      -0.579800
     37 H1          -0.5420     0.0020    -0.9380 ha         1 2UY       0.137000
     38 H2           1.9230    -0.0020    -0.9380 ha         1 2UY       0.129500
     39 H3           3.1580    -0.0000     1.1940 ha         1 2UY       0.128000
     40 H4           1.9340    -0.0030     3.3320 ha         1 2UY       0.129500
     41 H5          -0.5300     0.0020     3.3450 ha         1 2UY       0.137000
     42 H6          -2.5920     0.6630     0.6440 hn         1 2UY       0.470800
     43 H7           0.1170    -1.5870     5.7340 ha         1 2UY       0.162000
     44 H8           0.2060    -0.3680     7.8990 ha         1 2UY       0.144000
     45 H9          -0.6790    -0.4400    10.3000 hn         1 2UY       0.444300
     46 H10         -2.4090    -0.3370    10.2940 hn         1 2UY       0.444300
     47 H11         -3.4650    -3.4950     7.0780 h4         1 2UY       0.041100
     48 H12         -4.6050    -3.4000     4.2290 ha         1 2UY       0.160000
     49 H13         -5.9300    -2.0020     2.6560 ha         1 2UY       0.148000
     50 H14         -6.4960     0.3270     2.3470 ha         1 2UY       0.150000
     51 H15         -7.7150     1.7660     0.7250 ha         1 2UY       0.164000
     52 H16         -4.6620     0.9280    -2.1500 h4         1 2UY       0.032100
     53 H17         -5.1240     3.3140    -2.2810 hc         1 2UY       0.064033
     54 H18         -5.5730     2.0740    -3.4600 hc         1 2UY       0.064033
     55 H19         -6.4200     3.6260    -3.4430 hc         1 2UY       0.064033
     56 H20         -7.2150     4.1910    -1.3940 ho         1 2UY       0.423000
@<TRIPOS>BOND
     1    34    31 1
     2    33    31 1
     3    35    30 1
     4    31    30 1
     5    31    32 1
     6    30    36 1
     7    30    29 1
     8    26    29 ar
     9    26    25 ar
    10    29    28 ar
    11    25    24 ar
    12    28    27 ar
    13    24    27 ar
    14    24    23 1
    15    22    23 ar
    16    22    21 ar
    17    23     8 ar
    18    21    10 ar
    19     8     7 1
    20     8     9 ar
    21    16    15 ar
    22    16    17 ar
    23    15    14 ar
    24     7     6 1
    25    10     9 ar
    26    10    11 1
    27    13    11 2
    28    18    17 1
    29    17    19 ar
    30    14    11 1
    31    14    20 ar
    32     6     1 ar
    33     6     5 ar
    34    11    12 2
    35     1     2 ar
    36    19    20 ar
    37     5     4 ar
    38     2     3 ar
    39     4     3 ar
    40     1    37 1
    41     2    38 1
    42     3    39 1
    43     4    40 1
    44     5    41 1
    45     7    42 1
    46    15    43 1
    47    16    44 1
    48    18    45 1
    49    18    46 1
    50    20    47 1
    51    21    48 1
    52    22    49 1
    53    25    50 1
    54    26    51 1
    55    28    52 1
    56    35    53 1
    57    35    54 1
    58    35    55 1
    59    36    56 1
@<TRIPOS>SUBSTRUCTURE
     1 2UY         1 TEMP              0 ****  ****    0 ROOT
