@<TRIPOS>MOLECULE
2UZ
   23    23     1     0     0
SMALL
bcc


@<TRIPOS>ATOM
      1 O            0.0000     0.0000     0.0000 o          1 2UZ      -0.823300
      2 C            1.2090     0.0000     0.0000 c          1 2UZ       0.961600
      3 OXT          1.8800     0.0000     1.1620 o          1 2UZ      -0.823300
      4 CA           1.9610    -0.0060    -1.3060 c3         1 2UZ      -0.192500
      5 N            1.0780    -0.4860    -2.3780 nz         1 2UZ       0.080400
      6 CB           2.4330     1.4130    -1.6310 c3         1 2UZ       0.263600
      7 NAH          3.0860     1.4340    -2.9470 nu         1 2UZ      -0.461000
      8 SAI          3.6680     1.9510    -0.4040 ss         1 2UZ      -0.365200
      9 CAG          4.1530     3.5700    -1.0780 c3         1 2UZ       0.157900
     10 CAF          4.3730     3.4480    -2.5580 c2         1 2UZ      -0.265200
     11 CAL          3.8820     2.5060    -3.3310 ce         1 2UZ      -0.059200
     12 CAJ          4.2130     2.5960    -4.7650 c          1 2UZ       0.979800
     13 OAD          4.9830     3.6070    -5.2160 o          1 2UZ      -0.883800
     14 OAB          3.7940     1.7600    -5.5390 o          1 2UZ      -0.883800
     15 H2           2.8190    -0.6620    -1.2250 hx         1 2UZ       0.100700
     16 H3           0.4810     0.2600    -2.6770 hn         1 2UZ       0.213133
     17 H4           0.5190    -1.2430    -2.0360 hn         1 2UZ       0.213133
     18 H6           1.5920     2.0950    -1.6270 h2         1 2UZ       0.051700
     19 H7           3.3650     4.2890    -0.8890 h1         1 2UZ       0.037700
     20 H8           5.0700     3.8970    -0.6030 h1         1 2UZ       0.037700
     21 H9           4.9910     4.2030    -3.0290 ha         1 2UZ       0.161000
     22 H10          2.9560     0.6660    -3.5760 hn         1 2UZ       0.286800
     23 HN3          1.6310    -0.8310    -3.1370 hn         1 2UZ       0.213133
@<TRIPOS>BOND
     1     1     2 1   
     2     2     3 1   
     3     2     4 1   
     4     4     5 1   
     5     4     6 1   
     6     4    15 1   
     7     5    16 1   
     8     5    17 1   
     9     5    23 1   
    10     6     7 1   
    11     6     8 1   
    12     6    18 1   
    13     7    11 1   
    14     7    22 1   
    15     8     9 1   
    16     9    10 1   
    17     9    19 1   
    18     9    20 1   
    19    10    11 2   
    20    10    21 1   
    21    11    12 1   
    22    12    13 1   
    23    12    14 1   
@<TRIPOS>SUBSTRUCTURE
     1 2UZ         1 TEMP              0 ****  ****    0 ROOT
