@<TRIPOS>MOLECULE
molecule
   26    26     1     0     0
SMALL
bcc


@<TRIPOS>ATOM
      1 O            0.0000     0.0000     0.0000 o          1 2V0      -0.782800
      2 C            1.2080     0.0000     0.0000 c          1 2V0       0.872600
      3 OXT          1.8790     0.0000     1.1620 o          1 2V0      -0.782800
      4 CA           1.9620    -0.0050    -1.3050 c3         1 2V0      -0.010500
      5 N            1.0800    -0.4850    -2.3780 nz         1 2V0      -0.791600
      6 CB           2.4330     1.4130    -1.6290 c3         1 2V0       0.322600
      7 NAH          3.0880     1.4360    -2.9450 nu         1 2V0      -0.834000
      8 SAI          3.6680     1.9520    -0.4010 ss         1 2V0      -0.286200
      9 CAG          4.1520     3.5710    -1.0730 c3         1 2V0       0.068900
     10 CAJ          4.3740     3.4500    -2.5530 c2         1 2V0      -0.237400
     11 CAA          5.2310     4.5020    -3.2100 c3         1 2V0      -0.000900
     12 CAM          3.8830     2.5080    -3.3270 ce         1 2V0       0.081800
     13 CAK          4.2160     2.5990    -4.7620 c          1 2V0       0.882800
     14 OAE          3.8510     1.6110    -5.6020 o          1 2V0      -0.836300
     15 OAC          4.8200     3.5650    -5.1850 o          1 2V0      -0.836300
     16 H2           2.8200    -0.6610    -1.2230 hx         1 2V0       0.117700
     17 H3           0.5210    -1.2420    -2.0370 hn         1 2V0       0.441133
     18 H4           1.6340    -0.8000    -3.1500 hn         1 2V0       0.441133
     19 H6           1.5920     2.0960    -1.6260 h2         1 2V0       0.069700
     20 H7           2.9600     0.6680    -3.5730 hn         1 2V0       0.430800
     21 H9           3.3640     4.2900    -0.8850 h1         1 2V0       0.063200
     22 H10          5.0690     3.8990    -0.5980 h1         1 2V0       0.063200
     23 H12          5.6030     5.1860    -2.4570 hc         1 2V0       0.034033
     24 H13          4.6400     5.0490    -3.9340 hc         1 2V0       0.034033
     25 H14          6.0660     4.0260    -3.7100 hc         1 2V0       0.034033
     26 HN3          0.4940     0.2650    -2.6880 hn         1 2V0       0.441133
@<TRIPOS>BOND
     1    11    10 1
     2    14    13 1
     3    10     9 1
     4    10    12 2
     5    15    13 1
     6    13    12 1
     7     9     8 1
     8    12     7 1
     9     7     6 1
    10     8     6 1
    11     6     4 1
    12     1     2 1
    13     4     2 1
    14     4     5 1
    15     2     3 1
    16     4    16 1
    17     5    17 1
    18     5    18 1
    19     6    19 1
    20     7    20 1
    21     9    21 1
    22     9    22 1
    23    11    23 1
    24    11    24 1
    25    11    25 1
    26    26     5 1
@<TRIPOS>SUBSTRUCTURE
     1 2V0         1 TEMP              0 ****  ****    0 ROOT
