@<TRIPOS>MOLECULE
molecule
   71    76     1     0     0
SMALL
bcc


@<TRIPOS>ATOM
      1 C1           0.0000     0.0000     0.0000 cc         1 2V1       0.751200
      2 N2           1.3170     0.0000     0.0000 nd         1 2V1      -0.765000
      3 C3           2.0120     0.0000     1.1510 cd         1 2V1       0.494800
      4 C4           1.3800    -0.0010     2.3540 cc         1 2V1      -0.255600
      5 C5          -0.7020    -0.0010     1.2320 cc         1 2V1      -0.185600
      6 N6           0.0120    -0.0000     2.4040 na         1 2V1       0.083700
      7 C7          -0.8900    -0.0010     3.4230 cc         1 2V1      -0.225100
      8 C8          -2.1230    -0.0010     2.8640 cd         1 2V1       0.024600
      9 N9          -1.9880    -0.0000     1.5370 nd         1 2V1      -0.302600
     10 N10         -0.6960     0.0060    -1.1990 nu         1 2V1      -0.748300
     11 C11         -0.0080    -0.1050    -2.4040 ca         1 2V1       0.182600
     12 C12          1.1400    -0.8890    -2.4780 ca         1 2V1      -0.160000
     13 C13          1.8190    -1.0040    -3.6690 ca         1 2V1      -0.077000
     14 C14          1.3560    -0.3340    -4.8050 ca         1 2V1      -0.171600
     15 C15          0.2020     0.4530    -4.7270 ca         1 2V1      -0.077000
     16 C16         -0.4720     0.5650    -3.5330 ca         1 2V1      -0.160000
     17 C17          3.4950    -0.0010     1.1070 ca         1 2V1      -0.128500
     18 C18          2.0820    -0.4560    -6.0830 c          1 2V1       0.685700
     19 O19          3.2920    -0.5810    -6.0860 o          1 2V1      -0.619100
     20 N20          1.4050    -0.4270    -7.2490 n          1 2V1      -0.490800
     21 C21          2.1160    -0.4350    -8.5380 c3         1 2V1       0.061000
     22 C22          1.5100    -1.5350    -9.4170 c3         1 2V1       0.120400
     23 O23          0.0920    -1.3650    -9.4750 os         1 2V1      -0.419600
     24 C24         -0.5650    -1.4930    -8.2100 c3         1 2V1       0.120400
     25 C25         -0.0660    -0.3960    -7.2700 c3         1 2V1       0.061000
     26 C26          4.1570     0.0050    -0.1180 ca         1 2V1      -0.116000
     27 C27          5.5430     0.0050    -0.1530 ca         1 2V1       0.047600
     28 C28          6.2680    -0.0010     1.0340 ca         1 2V1      -0.112000
     29 C29          5.6100    -0.0070     2.2490 ca         1 2V1      -0.117000
     30 C30          4.2300    -0.0010     2.2920 ca         1 2V1      -0.132000
     31 N31          6.2130     0.0100    -1.3810 ns         1 2V1      -0.472100
     32 C32          7.3570     0.7070    -1.5210 c          1 2V1       0.671700
     33 C33          8.0130     0.7940    -2.8430 ca         1 2V1      -0.099600
     34 O34          7.8510     1.2660    -0.5610 o          1 2V1      -0.591100
     35 C35          7.4460     0.1590    -3.9500 ca         1 2V1      -0.107000
     36 C36          8.0590     0.2490    -5.1830 ca         1 2V1      -0.038500
     37 C37          9.2340     0.9650    -5.3230 ca         1 2V1      -0.278500
     38 C38          9.8020     1.5970    -4.2310 ca         1 2V1      -0.038500
     39 C39          9.1980     1.5160    -2.9930 ca         1 2V1      -0.107000
     40 S40         10.0120     1.0740    -6.9010 sy         1 2V1       1.190300
     41 C41          9.2840     2.5500    -7.6630 c3         1 2V1      -0.226300
     42 O42         11.3830     1.2920    -6.6010 o          1 2V1      -0.615800
     43 O43          9.5880    -0.0990    -7.5820 o          1 2V1      -0.615800
     44 H1           1.9560    -0.0000     3.2710 h4         1 2V1       0.173000
     45 H2          -0.6640    -0.0010     4.4830 h4         1 2V1       0.185000
     46 H3          -3.0620    -0.0030     3.4040 h4         1 2V1       0.187000
     47 H4          -1.6940     0.0850    -1.1980 hn         1 2V1       0.478800
     48 H5           1.4990    -1.4090    -1.5980 ha         1 2V1       0.151500
     49 H6           2.7120    -1.6150    -3.7270 ha         1 2V1       0.146000
     50 H7          -0.1590     0.9740    -5.6050 ha         1 2V1       0.146000
     51 H8          -1.3650     1.1740    -3.4710 ha         1 2V1       0.151500
     52 H9           3.1670    -0.6390    -8.3720 h1         1 2V1       0.067950
     53 H10          1.9970     0.5260    -9.0240 h1         1 2V1       0.067950
     54 H11          1.9220    -1.4650   -10.4170 h1         1 2V1       0.056200
     55 H12          1.7400    -2.5040    -8.9920 h1         1 2V1       0.056200
     56 H13         -1.6340    -1.3910    -8.3470 h1         1 2V1       0.056200
     57 H14         -0.3400    -2.4630    -7.7840 h1         1 2V1       0.056200
     58 H15         -0.4030     0.5690    -7.6280 h1         1 2V1       0.067950
     59 H16         -0.4470    -0.5730    -6.2710 h1         1 2V1       0.067950
     60 H17          3.5910     0.0100    -1.0420 ha         1 2V1       0.158000
     61 H18          7.3510    -0.0030     1.0060 ha         1 2V1       0.166000
     62 H19          6.1790    -0.0090     3.1710 ha         1 2V1       0.138000
     63 H20          3.7180    -0.0050     3.2470 ha         1 2V1       0.128000
     64 H21          5.8660    -0.5390    -2.1420 hn         1 2V1       0.332500
     65 H22          6.5250    -0.4020    -3.8410 ha         1 2V1       0.151000
     66 H23          7.6200    -0.2430    -6.0420 ha         1 2V1       0.158500
     67 H24         10.7220     2.1560    -4.3470 ha         1 2V1       0.158500
     68 H25          9.6440     2.0110    -2.1380 ha         1 2V1       0.151000
     69 H26          9.3910     3.3930    -6.9910 h1         1 2V1       0.099700
     70 H27          9.7940     2.7640    -8.5950 h1         1 2V1       0.099700
     71 H28          8.2330     2.3750    -7.8590 h1         1 2V1       0.099700
@<TRIPOS>BOND
     1    19    18 2
     2    25    24 1
     3    25    20 1
     4    24    23 1
     5    18    20 1
     6    18    14 1
     7    20    21 1
     8    23    22 1
     9    13    14 ar
    10    13    12 ar
    11    14    15 ar
    12    43    40 2
    13    21    22 1
    14    12    11 ar
    15    15    16 ar
    16    42    40 2
    17    40    37 1
    18    40    41 1
    19    36    35 ar
    20    36    37 ar
    21    11    16 ar
    22    11    10 1
    23    35    33 ar
    24    37    38 ar
    25    10     1 1
    26    34    32 2
    27    33    39 ar
    28    33    32 1
    29    38    39 ar
    30    32    31 1
    31     1     2 2
    32     1     5 1
    33     2     3 1
    34     9     5 2
    35     9     8 1
    36     5     6 1
    37    31    27 1
    38    26    27 ar
    39    26    17 ar
    40     8     7 2
    41     3    17 1
    42     3     4 2
    43    27    28 ar
    44     6     4 1
    45     6     7 1
    46    17    30 ar
    47    28    29 ar
    48    30    29 ar
    49     4    44 1
    50     7    45 1
    51     8    46 1
    52    10    47 1
    53    12    48 1
    54    13    49 1
    55    15    50 1
    56    16    51 1
    57    21    52 1
    58    21    53 1
    59    22    54 1
    60    22    55 1
    61    24    56 1
    62    24    57 1
    63    25    58 1
    64    25    59 1
    65    26    60 1
    66    28    61 1
    67    29    62 1
    68    30    63 1
    69    31    64 1
    70    35    65 1
    71    36    66 1
    72    38    67 1
    73    39    68 1
    74    41    69 1
    75    41    70 1
    76    41    71 1
@<TRIPOS>SUBSTRUCTURE
     1 2V1         1 TEMP              0 ****  ****    0 ROOT
