@<TRIPOS>MOLECULE
molecule
   64    67     1     0     0
SMALL
bcc


@<TRIPOS>ATOM
      1 C1           0.0000     0.0000     0.0000 c          1 2V2       0.681700
      2 C2           1.4130     0.0000     0.0000 cc         1 2V2      -0.038600
      3 C3           2.0810     0.0000     1.1910 cd         1 2V2      -0.061000
      4 C4           1.3420     0.0000     2.3940 cd         1 2V2      -0.142200
      5 C5          -0.0220    -0.0000     2.3510 cc         1 2V2       0.012600
      6 N6          -0.6770     0.0000     1.1630 n          1 2V2      -0.314000
      7 O7          -0.6090     0.0050    -1.0590 o          1 2V2      -0.619500
      8 C8          -2.1420    -0.0000     1.1470 c3         1 2V2       0.085300
      9 C9           2.0460    -0.0000     3.7000 ca         1 2V2      -0.037800
     10 C10          2.1080    -1.1670     4.4610 ca         1 2V2      -0.098000
     11 C11          2.7630    -1.1650     5.6760 ca         1 2V2      -0.131000
     12 C12          3.3590    -0.0090     6.1430 ca         1 2V2      -0.102000
     13 C13          3.3030     1.1580     5.3910 ca         1 2V2       0.011600
     14 C14          2.6520     1.1640     4.1670 ca         1 2V2      -0.049300
     15 C15          2.5950     2.4270     3.3470 c3         1 2V2      -0.052800
     16 N16          3.9080     2.3280     5.8680 n          1 2V2      -0.296500
     17 C17          3.1950     3.1880     6.6430 cc         1 2V2       0.508800
     18 N18          3.6850     4.2920     7.1220 nd         1 2V2      -0.646100
     19 C19          5.1990     2.5900     5.5570 c          1 2V2       0.706100
     20 O20          5.8510     1.8260     4.8690 o          1 2V2      -0.609500
     21 C21          5.7840     3.8320     6.0840 ca         1 2V2      -0.208600
     22 C22          4.9650     4.6660     6.8770 ca         1 2V2       0.190400
     23 C23          5.4930     5.8520     7.3920 ca         1 2V2      -0.117000
     24 C24          6.7980     6.1940     7.1180 ca         1 2V2      -0.034300
     25 C25          7.5980     5.3730     6.3340 ca         1 2V2      -0.154000
     26 C26          7.1040     4.1930     5.8230 ca         1 2V2      -0.053000
     27 C27          7.3640     7.4740     7.6750 c3         1 2V2      -0.028700
     28 C28          8.8200     7.6230     7.2300 c3         1 2V2      -0.081767
     29 C29          6.5490     8.6610     7.1570 c3         1 2V2      -0.081767
     30 C30          7.2980     7.4390     9.2030 c3         1 2V2      -0.081767
     31 N31          2.1210     0.0000    -1.2100 ns         1 2V2      -0.496100
     32 C32          1.9520    -1.0060    -2.0900 c          1 2V2       0.787100
     33 O33          1.1230    -1.8700    -1.8740 o          1 2V2      -0.628100
     34 N34          2.7020    -1.0580    -3.2080 ns         1 2V2      -0.605900
     35 C35          2.5190    -2.1520    -4.1640 c3         1 2V2       0.123300
     36 H1           3.1640     0.0000     1.2120 ha         1 2V2       0.149000
     37 H2          -0.5870    -0.0000     3.2760 h4         1 2V2       0.158000
     38 H3          -2.4970    -0.9020     0.6620 h1         1 2V2       0.057367
     39 H4          -2.4970     0.8660     0.6020 h1         1 2V2       0.057367
     40 H5          -2.5150     0.0340     2.1630 h1         1 2V2       0.057367
     41 H6           1.6410    -2.0750     4.0980 ha         1 2V2       0.142000
     42 H7           2.8100    -2.0730     6.2650 ha         1 2V2       0.140000
     43 H8           3.8710    -0.0130     7.0980 ha         1 2V2       0.143000
     44 H9           3.4400     2.4570     2.6700 hc         1 2V2       0.051700
     45 H10          2.6280     3.2870     4.0050 hc         1 2V2       0.051700
     46 H11          1.6740     2.4450     2.7760 hc         1 2V2       0.051700
     47 H12          2.1650     2.9410     6.8730 h5         1 2V2       0.059800
     48 H13          4.8780     6.5000     8.0050 ha         1 2V2       0.152000
     49 H14          8.6230     5.6590     6.1290 ha         1 2V2       0.144000
     50 H15          7.7330     3.5570     5.2120 ha         1 2V2       0.154000
     51 H16          8.8670     7.6500     6.1480 hc         1 2V2       0.038922
     52 H17          9.3970     6.7820     7.5950 hc         1 2V2       0.038922
     53 H18          9.2290     8.5420     7.6320 hc         1 2V2       0.038922
     54 H19          6.4480     8.5880     6.0810 hc         1 2V2       0.038922
     55 H20          5.5670     8.6510     7.6130 hc         1 2V2       0.038922
     56 H21          7.0560     9.5850     7.4100 hc         1 2V2       0.038922
     57 H22          7.7090     6.5020     9.5610 hc         1 2V2       0.038922
     58 H23          7.8720     8.2630     9.6090 hc         1 2V2       0.038922
     59 H24          6.2660     7.5250     9.5220 hc         1 2V2       0.038922
     60 H25          2.7460     0.7520    -1.4240 hn         1 2V2       0.316500
     61 H26          3.3850    -0.3490    -3.3850 hn         1 2V2       0.303500
     62 H27          2.6980    -3.0990    -3.6690 h1         1 2V2       0.041033
     63 H28          1.5060    -2.1310    -4.5480 h1         1 2V2       0.041033
     64 H29          3.2180    -2.0360    -4.9840 h1         1 2V2       0.041033
@<TRIPOS>BOND
     1    35    34 1
     2    34    32 1
     3    32    33 2
     4    32    31 1
     5    31     2 1
     6     2     1 1
     7     2     3 2
     8     7     1 2
     9     1     6 1
    10     3     4 1
    11     6     8 1
    12     6     5 1
    13     4     5 2
    14     4     9 1
    15    10     9 ar
    16    10    11 ar
    17     9    14 ar
    18    11    12 ar
    19    14    15 1
    20    14    13 ar
    21    12    13 ar
    22    13    16 1
    23    17    16 1
    24    17    18 2
    25    16    19 1
    26    18    22 1
    27    19    20 2
    28    19    21 1
    29    22    21 ar
    30    22    23 ar
    31    21    26 ar
    32    23    24 ar
    33    26    25 ar
    34    24    25 ar
    35    24    27 1
    36    28    27 1
    37    27    30 1
    38    27    29 1
    39     3    36 1
    40     5    37 1
    41     8    38 1
    42     8    39 1
    43     8    40 1
    44    10    41 1
    45    11    42 1
    46    12    43 1
    47    15    44 1
    48    15    45 1
    49    15    46 1
    50    17    47 1
    51    23    48 1
    52    25    49 1
    53    26    50 1
    54    28    51 1
    55    28    52 1
    56    28    53 1
    57    29    54 1
    58    29    55 1
    59    29    56 1
    60    30    57 1
    61    30    58 1
    62    30    59 1
    63    31    60 1
    64    34    61 1
    65    35    62 1
    66    35    63 1
    67    35    64 1
@<TRIPOS>SUBSTRUCTURE
     1 2V2         1 TEMP              0 ****  ****    0 ROOT
