@<TRIPOS>MOLECULE
2V3
   83    89     1     0     0
SMALL
bcc


@<TRIPOS>ATOM
      1 C1           0.0000     0.0000     0.0000 cc         1 2V3      -0.135200
      2 C2           1.3660     0.0000     0.0000 cd         1 2V3      -0.039000
      3 C3           2.0530     0.0000     1.2330 cd         1 2V3      -0.121200
      4 C4           1.3500     0.0000     2.4010 cc         1 2V3      -0.130400
      5 C5          -0.6920     0.0010     1.2320 c          1 2V3       0.572700
      6 N6          -0.0080    -0.0000     2.3920 n          1 2V3       0.126000
      7 N7          -0.7080     0.0060    -1.2080 nu         1 2V3      -0.303700
      8 C8           3.5380    -0.0010     1.2580 ca         1 2V3      -0.009800
      9 C9           4.2300    -1.1670     1.5770 ca         1 2V3      -0.078000
     10 C10          5.6110    -1.1670     1.5990 ca         1 2V3      -0.091000
     11 C11          6.3100    -0.0110     1.3060 ca         1 2V3      -0.074000
     12 C12          5.6280     1.1570     0.9880 ca         1 2V3      -0.101400
     13 C13          4.2410     1.1620     0.9570 ca         1 2V3      -0.061300
     14 N14          6.3400     2.3260     0.6940 n          1 2V3       0.192800
     15 C15          6.6600     3.1790     1.7130 cc         1 2V3      -0.120400
     16 C16          7.3410     4.3180     1.5090 cd         1 2V3      -0.185200
     17 C17          6.6900     2.5690    -0.5860 c          1 2V3       0.613100
     18 C18          7.4350     3.7890    -0.9040 ca         1 2V3      -0.214600
     19 C19          7.7610     4.6730     0.1520 ca         1 2V3       0.033200
     20 C20          8.4700     5.8430    -0.1190 ca         1 2V3      -0.125000
     21 C21          8.8410     6.1290    -1.4140 ca         1 2V3       0.015700
     22 C22          8.5180     5.2670    -2.4530 ca         1 2V3      -0.182000
     23 C23          7.8270     4.0980    -2.2090 ca         1 2V3       0.199900
     24 O24          6.3910     1.7820    -1.4660 o          1 2V3      -0.655500
     25 C25          3.4980     2.4260     0.6060 c3         1 2V3       0.260700
     26 O26          3.2410     3.1730     1.7960 oh         1 2V3      -0.594800
     27 C27         -0.7390     0.0000     3.6620 c3         1 2V3       0.048300
     28 O28         -1.9120     0.0010     1.2450 o          1 2V3      -0.686500
     29 C29         -1.5790    -1.0380    -1.5100 ca         1 2V3       0.490200
     30 C30          9.6070     7.3940    -1.7070 cx         1 2V3      -0.070400
     31 F31          7.5210     3.2620    -3.2270 f          1 2V3      -0.111900
     32 C32         10.9930     7.2500    -2.3400 cx         1 2V3      -0.074900
     33 C33          9.8200     7.7670    -3.1750 cx         1 2V3      -0.074900
     34 C34         -1.6450    -2.1440    -0.6700 ca         1 2V3      -0.246300
     35 C35         -2.5170    -3.1730    -0.9760 ca         1 2V3      -0.052000
     36 C36         -3.3020    -3.0580    -2.1210 ca         1 2V3      -0.150700
     37 C37         -3.1840    -1.9250    -2.9120 ca         1 2V3       0.386200
     38 N38         -2.3410    -0.9630    -2.5910 nb         1 2V3      -0.620000
     39 N39         -4.1990    -4.0750    -2.4700 nh         1 2V3      -0.356000
     40 C40         -3.5090    -5.3660    -2.5960 c3         1 2V3       0.134800
     41 C41         -4.5340    -6.4630    -2.8980 c3         1 2V3       0.150300
     42 N42         -5.2510    -6.1300    -4.1360 n3         1 2V3      -0.546600
     43 C43         -5.9420    -4.8390    -4.0110 c3         1 2V3       0.150300
     44 C44         -4.9180    -3.7430    -3.7080 c3         1 2V3       0.134800
     45 C45         -6.1920    -7.1970    -4.5020 c3         1 2V3       0.155800
     46 C46         -6.7340    -6.9400    -5.9090 c3         1 2V3      -0.003100
     47 H1           1.9150    -0.0010    -0.9340 ha         1 2V3       0.125000
     48 H2           1.8800    -0.0000     3.3460 h4         1 2V3       0.136000
     49 H3          -0.5970     0.7660    -1.8490 hn         1 2V3       0.288800
     50 H4           3.6850    -2.0750     1.8070 ha         1 2V3       0.110000
     51 H5           6.1480    -2.0750     1.8470 ha         1 2V3       0.109000
     52 H6           7.3930    -0.0150     1.3280 ha         1 2V3       0.113000
     53 H7           6.3540     2.9260     2.7210 h4         1 2V3       0.132000
     54 H8           7.5770     4.9690     2.3420 ha         1 2V3       0.125000
     55 H9           8.7270     6.5220     0.6850 ha         1 2V3       0.117000
     56 H10          8.8200     5.5100    -3.4650 ha         1 2V3       0.134000
     57 H11          4.0980     3.0210    -0.0720 h1         1 2V3       0.003700
     58 H12          2.5590     2.1720     0.1290 h1         1 2V3       0.003700
     59 H13          2.7050     3.9200     1.5880 ho         1 2V3       0.395000
     60 H14         -1.3310    -0.9040     3.7380 h1         1 2V3       0.026700
     61 H15         -0.0350     0.0410     4.4840 h1         1 2V3       0.026700
     62 H16         -1.3920     0.8640     3.7030 h1         1 2V3       0.026700
     63 H17          9.5000     8.2380    -1.0360 hc         1 2V3       0.063700
     64 H18         11.3070     6.2360    -2.5520 hc         1 2V3       0.050200
     65 H19         11.7210     7.9960    -2.0450 hc         1 2V3       0.050200
     66 H20          9.8320     8.8280    -3.3910 hc         1 2V3       0.050200
     67 H21          9.4180     7.0680    -3.8980 hc         1 2V3       0.050200
     68 H22         -1.0190    -2.2000     0.2130 ha         1 2V3       0.118000
     69 H23         -2.5890    -4.0470    -0.3390 ha         1 2V3       0.112000
     70 H24         -3.7910    -1.8290    -3.8040 h4         1 2V3      -0.006900
     71 H25         -2.7890    -5.3130    -3.4040 h1         1 2V3       0.022700
     72 H26         -3.0000    -5.5950    -1.6670 h1         1 2V3       0.022700
     73 H27         -4.0220    -7.4100    -3.0210 h1         1 2V3       0.015700
     74 H28         -5.2400    -6.5320    -2.0790 h1         1 2V3       0.015700
     75 H30         -6.6620    -4.8920    -3.2040 h1         1 2V3       0.015700
     76 H31         -6.4490    -4.6100    -4.9410 h1         1 2V3       0.015700
     77 H32         -5.4300    -2.7960    -3.5850 h1         1 2V3       0.022700
     78 H33         -4.2110    -3.6740    -4.5270 h1         1 2V3       0.022700
     79 H34         -5.6820    -8.1520    -4.4810 h1         1 2V3       0.006700
     80 H35         -7.0140    -7.2110    -3.7960 h1         1 2V3       0.006700
     81 H36         -7.0400    -7.8780    -6.3560 hc         1 2V3       0.007033
     82 H37         -7.5850    -6.2720    -5.8520 hc         1 2V3       0.007033
     83 H38         -5.9600    -6.4860    -6.5170 hc         1 2V3       0.007033
@<TRIPOS>BOND
     1     1     2 2   
     2     1     5 1   
     3     1     7 1   
     4     2     3 1   
     5     2    47 1   
     6     3     4 2   
     7     3     8 1   
     8     4     6 1   
     9     4    48 1   
    10     5     6 1   
    11     5    28 2   
    12     6    27 1   
    13     7    29 1   
    14     7    49 1   
    15     8     9 ar  
    16     8    13 ar  
    17     9    10 ar  
    18     9    50 1   
    19    10    11 ar  
    20    10    51 1   
    21    11    12 ar  
    22    11    52 1   
    23    12    13 ar  
    24    12    14 1   
    25    13    25 1   
    26    14    15 1   
    27    14    17 1   
    28    15    16 2   
    29    15    53 1   
    30    16    19 1   
    31    16    54 1   
    32    17    18 1   
    33    17    24 2   
    34    18    19 ar  
    35    18    23 ar  
    36    19    20 ar  
    37    20    21 ar  
    38    20    55 1   
    39    21    22 ar  
    40    21    30 1   
    41    22    23 ar  
    42    22    56 1   
    43    23    31 1   
    44    25    26 1   
    45    25    57 1   
    46    25    58 1   
    47    26    59 1   
    48    27    60 1   
    49    27    61 1   
    50    27    62 1   
    51    29    34 ar  
    52    29    38 ar  
    53    30    32 1   
    54    30    33 1   
    55    30    63 1   
    56    32    33 1   
    57    32    64 1   
    58    32    65 1   
    59    33    66 1   
    60    33    67 1   
    61    34    35 ar  
    62    34    68 1   
    63    35    36 ar  
    64    35    69 1   
    65    36    37 ar  
    66    36    39 1   
    67    37    38 ar  
    68    37    70 1   
    69    39    40 1   
    70    39    44 1   
    71    40    41 1   
    72    40    71 1   
    73    40    72 1   
    74    41    42 1   
    75    41    73 1   
    76    41    74 1   
    77    42    43 1   
    78    42    45 1   
    79    43    44 1   
    80    43    75 1   
    81    43    76 1   
    82    44    77 1   
    83    44    78 1   
    84    45    46 1   
    85    45    79 1   
    86    45    80 1   
    87    46    81 1   
    88    46    82 1   
    89    46    83 1   
@<TRIPOS>SUBSTRUCTURE
     1 2V3         1 TEMP              0 ****  ****    0 ROOT
