@<TRIPOS>MOLECULE
molecule
   83    89     1     0     0
SMALL
bcc


@<TRIPOS>ATOM
      1 C1           0.0000     0.0000     0.0000 cc         1 2V3       0.018800
      2 C2           1.3660     0.0000     0.0000 cd         1 2V3      -0.065000
      3 C3           2.0530     0.0000     1.2330 cd         1 2V3      -0.141200
      4 C4           1.3500     0.0000     2.4010 cc         1 2V3       0.016600
      5 C5          -0.6920     0.0010     1.2320 c          1 2V3       0.665700
      6 N6          -0.0080    -0.0000     2.3920 n          1 2V3      -0.317000
      7 N7          -0.7080     0.0060    -1.2080 nu         1 2V3      -0.768700
      8 C8           3.5380    -0.0010     1.2580 ca         1 2V3      -0.018800
      9 C9           4.2300    -1.1670     1.5770 ca         1 2V3      -0.109000
     10 C10          5.6110    -1.1670     1.5990 ca         1 2V3      -0.120000
     11 C11          6.3100    -0.0110     1.3060 ca         1 2V3      -0.109000
     12 C12          5.6280     1.1570     0.9880 ca         1 2V3       0.044600
     13 C13          4.2410     1.1620     0.9570 ca         1 2V3      -0.053300
     14 N14          6.3400     2.3260     0.6940 n          1 2V3      -0.262200
     15 C15          6.6600     3.1790     1.7130 cc         1 2V3       0.024600
     16 C16          7.3410     4.3180     1.5090 cd         1 2V3      -0.221200
     17 C17          6.6900     2.5690    -0.5860 c          1 2V3       0.708100
     18 C18          7.4350     3.7890    -0.9040 ca         1 2V3      -0.212600
     19 C19          7.7610     4.6730     0.1520 ca         1 2V3       0.033200
     20 C20          8.4700     5.8430    -0.1190 ca         1 2V3      -0.153000
     21 C21          8.8410     6.1290    -1.4140 ca         1 2V3       0.017700
     22 C22          8.5180     5.2670    -2.4530 ca         1 2V3      -0.204000
     23 C23          7.8270     4.0980    -2.2090 ca         1 2V3       0.211900
     24 O24          6.3910     1.7820    -1.4660 o          1 2V3      -0.608500
     25 C25          3.4980     2.4260     0.6060 c3         1 2V3       0.183700
     26 O26          3.2410     3.1730     1.7960 oh         1 2V3      -0.611800
     27 C27         -0.7390     0.0000     3.6620 c3         1 2V3       0.084300
     28 O28         -1.9120     0.0010     1.2450 o          1 2V3      -0.631500
     29 C29         -1.5790    -1.0380    -1.5100 ca         1 2V3       0.685200
     30 C30          9.6070     7.3940    -1.7070 cx         1 2V3      -0.104400
     31 F31          7.5210     3.2620    -3.2270 f          1 2V3      -0.111900
     32 C32         10.9930     7.2500    -2.3400 cx         1 2V3      -0.127900
     33 C33          9.8200     7.7670    -3.1750 cx         1 2V3      -0.127900
     34 C34         -1.6450    -2.1440    -0.6700 ca         1 2V3      -0.264300
     35 C35         -2.5170    -3.1730    -0.9760 ca         1 2V3      -0.080000
     36 C36         -3.3020    -3.0580    -2.1210 ca         1 2V3      -0.069700
     37 C37         -3.1840    -1.9250    -2.9120 ca         1 2V3       0.413200
     38 N38         -2.3410    -0.9630    -2.5910 nb         1 2V3      -0.735000
     39 N39         -4.1990    -4.0750    -2.4700 nh         1 2V3      -0.592000
     40 C40         -3.5090    -5.3660    -2.5960 c3         1 2V3       0.163300
     41 C41         -4.5340    -6.4630    -2.8980 c3         1 2V3       0.160800
     42 N42         -5.2510    -6.1300    -4.1360 n3         1 2V3      -0.733600
     43 C43         -5.9420    -4.8390    -4.0110 c3         1 2V3       0.160800
     44 C44         -4.9180    -3.7430    -3.7080 c3         1 2V3       0.163300
     45 C45         -6.1920    -7.1970    -4.5020 c3         1 2V3       0.160800
     46 C46         -6.7340    -6.9400    -5.9090 c3         1 2V3      -0.094100
     47 H1           1.9150    -0.0010    -0.9340 ha         1 2V3       0.155000
     48 H2           1.8800    -0.0000     3.3460 h4         1 2V3       0.163000
     49 H3          -0.5970     0.7660    -1.8490 hn         1 2V3       0.459800
     50 H4           3.6850    -2.0750     1.8070 ha         1 2V3       0.139000
     51 H5           6.1480    -2.0750     1.8470 ha         1 2V3       0.139000
     52 H6           7.3930    -0.0150     1.3280 ha         1 2V3       0.144000
     53 H7           6.3540     2.9260     2.7210 h4         1 2V3       0.162000
     54 H8           7.5770     4.9690     2.3420 ha         1 2V3       0.153000
     55 H9           8.7270     6.5220     0.6850 ha         1 2V3       0.142000
     56 H10          8.8200     5.5100    -3.4650 ha         1 2V3       0.153000
     57 H11          4.0980     3.0210    -0.0720 h1         1 2V3       0.039700
     58 H12          2.5590     2.1720     0.1290 h1         1 2V3       0.039700
     59 H13          2.7050     3.9200     1.5880 ho         1 2V3       0.407000
     60 H14         -1.3310    -0.9040     3.7380 h1         1 2V3       0.058033
     61 H15         -0.0350     0.0410     4.4840 h1         1 2V3       0.058033
     62 H16         -1.3920     0.8640     3.7030 h1         1 2V3       0.058033
     63 H17          9.5000     8.2380    -1.0360 hc         1 2V3       0.090700
     64 H18         11.3070     6.2360    -2.5520 hc         1 2V3       0.079200
     65 H19         11.7210     7.9960    -2.0450 hc         1 2V3       0.079200
     66 H20          9.8320     8.8280    -3.3910 hc         1 2V3       0.079200
     67 H21          9.4180     7.0680    -3.8980 hc         1 2V3       0.079200
     68 H22         -1.0190    -2.2000     0.2130 ha         1 2V3       0.138000
     69 H23         -2.5890    -4.0470    -0.3390 ha         1 2V3       0.140000
     70 H24         -3.7910    -1.8290    -3.8040 h4         1 2V3       0.026100
     71 H25         -2.7890    -5.3130    -3.4040 h1         1 2V3       0.047700
     72 H26         -3.0000    -5.5950    -1.6670 h1         1 2V3       0.047700
     73 H27         -4.0220    -7.4100    -3.0210 h1         1 2V3       0.042450
     74 H28         -5.2400    -6.5320    -2.0790 h1         1 2V3       0.042450
     75 H30         -6.6620    -4.8920    -3.2040 h1         1 2V3       0.042450
     76 H31         -6.4490    -4.6100    -4.9410 h1         1 2V3       0.042450
     77 H32         -5.4300    -2.7960    -3.5850 h1         1 2V3       0.047700
     78 H33         -4.2110    -3.6740    -4.5270 h1         1 2V3       0.047700
     79 H34         -5.6820    -8.1520    -4.4810 h1         1 2V3       0.032700
     80 H35         -7.0140    -7.2110    -3.7960 h1         1 2V3       0.032700
     81 H36         -7.0400    -7.8780    -6.3560 hc         1 2V3       0.039367
     82 H37         -7.5850    -6.2720    -5.8520 hc         1 2V3       0.039367
     83 H38         -5.9600    -6.4860    -6.5170 hc         1 2V3       0.039367
@<TRIPOS>BOND
     1    46    45 1
     2    45    42 1
     3    40    41 1
     4    40    39 1
     5    41    42 1
     6    42    43 1
     7    39    44 1
     8    39    36 1
     9    35    36 ar
    10    35    34 ar
    11    44    43 1
    12    36    37 ar
    13    34    29 ar
    14    37    38 ar
    15    29    38 ar
    16    29     7 1
    17     7     1 1
    18     1     5 1
    19     1     2 2
    20    28     5 2
    21     5     6 1
    22     2     3 1
    23     6    27 1
    24     6     4 1
    25     3     4 2
    26     3     8 1
    27     9     8 ar
    28     9    10 ar
    29     8    13 ar
    30    10    11 ar
    31    13    25 1
    32    13    12 ar
    33    25    26 1
    34    11    12 ar
    35    12    14 1
    36    15    14 1
    37    15    16 2
    38    14    17 1
    39    16    19 1
    40    17    24 2
    41    17    18 1
    42    19    18 ar
    43    19    20 ar
    44    18    23 ar
    45    20    21 ar
    46    23    31 1
    47    23    22 ar
    48    21    22 ar
    49    21    30 1
    50    30    32 1
    51    30    33 1
    52    32    33 1
    53     2    47 1
    54     4    48 1
    55     7    49 1
    56     9    50 1
    57    10    51 1
    58    11    52 1
    59    15    53 1
    60    16    54 1
    61    20    55 1
    62    22    56 1
    63    25    57 1
    64    25    58 1
    65    26    59 1
    66    27    60 1
    67    27    61 1
    68    27    62 1
    69    30    63 1
    70    32    64 1
    71    32    65 1
    72    33    66 1
    73    33    67 1
    74    34    68 1
    75    35    69 1
    76    37    70 1
    77    40    71 1
    78    40    72 1
    79    41    73 1
    80    41    74 1
    81    43    75 1
    82    43    76 1
    83    44    77 1
    84    44    78 1
    85    45    79 1
    86    45    80 1
    87    46    81 1
    88    46    82 1
    89    46    83 1
@<TRIPOS>SUBSTRUCTURE
     1 2V3         1 TEMP              0 ****  ****    0 ROOT
