@<TRIPOS>MOLECULE
molecule
   39    42     1     0     0
SMALL
bcc


@<TRIPOS>ATOM
      1 OAC          0.0000     0.0000     0.0000 o          1 2V4      -0.423100
      2 CAS          1.2150     0.0000     0.0000 c          1 2V4       0.542300
      3 CAX          1.9650     0.0000     1.2760 ca         1 2V4      -0.053600
      4 CAR          1.3190    -0.2900     2.4870 ca         1 2V4      -0.138600
      5 CAN         -0.1260    -0.5910     2.4910 c          1 2V4       0.561700
      6 OAB         -0.8100    -0.3960     1.5080 o          1 2V4      -0.450100
      7 CAL         -0.7250    -1.1500     3.7630 c3         1 2V4      -0.180400
      8 CAY         -0.1290    -0.3610     4.9360 c3         1 2V4       0.155800
      9 CAA         -0.7770    -0.8200     6.2430 c3         1 2V4      -0.128100
     10 OAG         -0.3750     1.0340     4.7460 oh         1 2V4      -0.592800
     11 CAM          1.3760    -0.6080     5.0000 c3         1 2V4      -0.044100
     12 CAQ          2.0390    -0.2910     3.6870 ca         1 2V4       0.006700
     13 CAK          3.3880     0.0030     3.6750 ca         1 2V4      -0.196000
     14 CAP          4.0440     0.2950     2.4830 ca         1 2V4       0.186100
     15 OAF          5.3690     0.5810     2.4910 oh         1 2V4      -0.481100
     16 CAW          3.3380     0.2930     1.2740 ca         1 2V4      -0.169600
     17 CAT          4.0220     0.5930     0.0010 c          1 2V4       0.585300
     18 OAD          5.1330     1.0860     0.0020 o          1 2V4      -0.472100
     19 CAV          3.3420     0.2880    -1.2730 ca         1 2V4      -0.158600
     20 CAU          1.9630    -0.0060    -1.2760 ca         1 2V4      -0.105600
     21 CAJ          1.3200    -0.2920    -2.4750 ca         1 2V4      -0.106000
     22 CAH          2.0370    -0.2880    -3.6620 ca         1 2V4      -0.093000
     23 CAI          3.3870    -0.0040    -3.6660 ca         1 2V4      -0.183000
     24 CAO          4.0520     0.2820    -2.4760 ca         1 2V4       0.163100
     25 OAE          5.3790     0.5620    -2.4860 oh         1 2V4      -0.487100
     26 H1          -1.8010    -1.0270     3.7470 hc         1 2V4       0.075200
     27 H2          -0.4700    -2.1990     3.8590 hc         1 2V4       0.075200
     28 H3          -0.6060    -1.8810     6.3780 hc         1 2V4       0.048367
     29 H4          -0.3420    -0.2770     7.0730 hc         1 2V4       0.048367
     30 H5          -1.8420    -0.6280     6.2050 hc         1 2V4       0.048367
     31 H6          -0.9230     1.3550     5.4430 ho         1 2V4       0.408000
     32 H7           1.8050     0.0190     5.7720 hc         1 2V4       0.065200
     33 H8           1.5530    -1.6490     5.2430 hc         1 2V4       0.065200
     34 H9           3.9430     0.0060     4.6060 ha         1 2V4       0.143000
     35 H10          5.8410    -0.1310     2.8900 ho         1 2V4       0.425000
     36 H11          0.2600    -0.5160    -2.4820 ha         1 2V4       0.157000
     37 H12          1.5320    -0.5100    -4.5940 ha         1 2V4       0.139000
     38 H13          3.9340    -0.0060    -4.6010 ha         1 2V4       0.140000
     39 H14          5.5510     1.2460    -3.1120 ho         1 2V4       0.426000
@<TRIPOS>BOND
     1    25    24 1
     2    23    24 ar
     3    23    22 ar
     4    24    19 ar
     5    22    21 ar
     6    19    17 1
     7    19    20 ar
     8    18    17 2
     9    21    20 ar
    10    17    16 1
    11    20     2 1
    12    15    14 1
    13    16    14 ar
    14    16     3 ar
    15     2     1 2
    16     2     3 1
    17    14    13 ar
    18     3     4 ar
    19    13    12 ar
    20     4    12 ar
    21     4     5 1
    22     6     5 2
    23    12    11 1
    24     5     7 1
    25    11     8 1
    26     7     8 1
    27     8     9 1
    28     8    10 1
    29     7    26 1
    30     7    27 1
    31     9    28 1
    32     9    29 1
    33     9    30 1
    34    10    31 1
    35    11    32 1
    36    11    33 1
    37    13    34 1
    38    15    35 1
    39    21    36 1
    40    22    37 1
    41    23    38 1
    42    25    39 1
@<TRIPOS>SUBSTRUCTURE
     1 2V4         1 TEMP              0 ****  ****    0 ROOT
