@<TRIPOS>MOLECULE
2V4
   39    42     1     0     0
SMALL
bcc


@<TRIPOS>ATOM
      1 OAC        -0.0700    0.5260   -0.0450 o         1 2V4     -0.488100
      2 CAS         1.1360    0.2630   -0.0250 c         1 2V4      0.584300
      3 CAX         1.9090    0.1310    1.2380 ca        1 2V4     -0.041600
      4 CAR         1.3150   -0.3450    2.4100 ca        1 2V4     -0.158600
      5 CAN        -0.0760   -0.8480    2.4790 c         1 2V4      0.592700
      6 OAB        -0.5620   -1.6040    1.6340 o         1 2V4     -0.510100
      7 CAL        -0.8600   -0.3930    3.6770 c3        1 2V4     -0.174400
      8 CAY        -0.0620   -0.3590    4.9860 c3        1 2V4      0.167800
      9 CAA        -0.7680   -1.1860    6.0600 c3        1 2V4     -0.128100
     10 OAG        -0.0520    1.0150    5.3750 oh        1 2V4     -0.592800
     11 CAM         1.3790   -0.8750    4.8400 c3        1 2V4     -0.076100
     12 CAQ         2.0500   -0.3790    3.6110 ca        1 2V4      0.014700
     13 CAK         3.3810    0.0210    3.6270 ca        1 2V4     -0.217000
     14 CAP         3.9880    0.4650    2.4370 ca        1 2V4      0.191100
     15 OAF         5.3060    0.8310    2.3940 oh        1 2V4     -0.459100
     16 CAW         3.2580    0.5280    1.2340 ca        1 2V4     -0.174600
     17 CAT         3.8950    0.9950   -0.0210 c         1 2V4      0.599300
     18 OAD         4.8310    1.7950   -0.0350 o         1 2V4     -0.471100
     19 CAV         3.2950    0.4330   -1.2510 ca        1 2V4     -0.161600
     20 CAU         1.9320    0.0860   -1.2610 ca        1 2V4     -0.097600
     21 CAJ         1.3250   -0.4080   -2.4140 ca        1 2V4     -0.118000
     22 CAH         2.0810   -0.5850   -3.5760 ca        1 2V4     -0.079000
     23 CAI         3.4320   -0.2650   -3.5910 ca        1 2V4     -0.204000
     24 CAO         4.0410    0.2460   -2.4290 ca        1 2V4      0.168100
     25 OAE         5.3750    0.5590   -2.3870 oh        1 2V4     -0.467100
     26 H1         -1.7600   -1.0530    3.7980 hc        1 2V4      0.095200
     27 H2         -1.2330    0.6470    3.4550 hc        1 2V4      0.095200
     28 H3         -1.7760   -0.7530    6.2650 hc        1 2V4      0.049033
     29 H4         -0.8860   -2.2420    5.7220 hc        1 2V4      0.049033
     30 H5         -0.1760   -1.1740    7.0060 hc        1 2V4      0.049033
     31 H6          0.3720    1.0660    6.2390 ho        1 2V4      0.400000
     32 H7          1.9620   -0.5750    5.7510 hc        1 2V4      0.065200
     33 H8          1.3570   -1.9980    4.8070 hc        1 2V4      0.065200
     34 H9          3.9610   -0.0040    4.5600 ha        1 2V4      0.143000
     35 H10         5.6640    0.7830    3.2940 ho        1 2V4      0.423000
     36 H11         0.2510   -0.6530   -2.3990 ha        1 2V4      0.161000
     37 H12         1.6010   -0.9790   -4.4850 ha        1 2V4      0.143000
     38 H13         4.0300   -0.4050   -4.5030 ha        1 2V4      0.140000
     39 H14         5.7420    0.4320   -3.2760 ho        1 2V4      0.422000
@<TRIPOS>BOND
     1    1    2 2   
     2    2    3 1   
     3    2   20 1   
     4    3    4 ar  
     5    3   16 ar  
     6    4    5 1   
     7    4   12 ar  
     8    5    6 2   
     9    5    7 1   
    10    7    8 1   
    11    7   26 1   
    12    7   27 1   
    13    8    9 1   
    14    8   10 1   
    15    8   11 1   
    16    9   28 1   
    17    9   29 1   
    18    9   30 1   
    19   10   31 1   
    20   11   12 1   
    21   11   32 1   
    22   11   33 1   
    23   12   13 ar  
    24   13   14 ar  
    25   13   34 1   
    26   14   15 1   
    27   14   16 ar  
    28   15   35 1   
    29   16   17 1   
    30   17   18 2   
    31   17   19 1   
    32   19   20 ar  
    33   19   24 ar  
    34   20   21 ar  
    35   21   22 ar  
    36   21   36 1   
    37   22   23 ar  
    38   22   37 1   
    39   23   24 ar  
    40   23   38 1   
    41   24   25 1   
    42   25   39 1   
@<TRIPOS>SUBSTRUCTURE
     1 2V4         1 TEMP              0 ****  ****    0 ROOT
