@<TRIPOS>MOLECULE
2V5
   87    83     1     0     0
SMALL
bcc


@<TRIPOS>ATOM
      1 C10        29.6210  -95.2610  -41.1360 c3        1 2V5     -0.155000
      2 C11        29.0830  -96.4210  -41.9450 c3        1 2V5     -0.238000
      3 C12        29.5340  -97.7350  -41.3940 c2        1 2V5      0.247000
      4 C15        27.5120 -102.5620  -41.3590 c2        1 2V5      0.111000
      5 C18        29.7510  -92.7830  -40.9300 c2        1 2V5      0.309000
      6 N02        24.9420  -17.5190  133.7180 n2        1 2V5     -0.182000
      7 C03        74.4210   65.1880  320.4710 c3        1 2V5     -0.246000
      8 C04        73.1890   64.3250  320.6720 c3        1 2V5     -0.097000
      9 N05        71.9510   64.9010  320.1320 n         1 2V5     -0.121000
     10 C06        71.5440   64.5920  318.7140 c2        1 2V5      0.376000
     11 O07        70.3300   64.6910  318.4870 o         1 2V5     -0.275000
     12 N08        72.4980   64.2490  317.8100 n         1 2V5     -0.372000
     13 C09        29.1560  -93.9390  -41.7120 c3        1 2V5     -0.175000
     14 O13        29.0320  -98.8130  -41.7420 o         1 2V5     -0.412000
     15 N14        28.2890 -101.4390  -42.0270 n4        1 2V5     -0.048000
     16 N16        26.4790 -103.0620  -42.1760 n3        1 2V5     -0.386000
     17 N17        27.8660 -102.7950  -40.1410 n2        1 2V5     -0.231000
     18 O19        30.8260  -92.8890  -40.3020 o         1 2V5     -0.388000
     19 N20        29.0850  -91.5710  -40.9620 n         1 2V5     -0.390000
     20 C21        29.4130  -90.4920  -40.0750 c3        1 2V5     -0.021000
     21 C22      -145.6840  190.1900 -243.7830 c2        1 2V5      0.305000
     22 C23      -145.6040  191.3800 -244.4980 c2        1 2V5     -1.293000
     23 S24      -144.7190  192.5780 -244.6470 s4        1 2V5      2.106800
     24 O25      -145.0940  193.5340 -245.5300 o         1 2V5     -0.419900
     25 O26      -143.5790  192.7110 -243.9280 o         1 2V5     -0.419900
     26 C27      -143.6350  190.1170 -242.3150 ca        1 2V5     -0.021000
     27 C28      -142.9030  189.4310 -241.3570 ca        1 2V5     -0.155000
     28 C29      -143.3540  188.2010 -240.8630 ca        1 2V5      0.012000
     29 C30      -144.5530  187.6570 -241.3380 ca        1 2V5     -0.155000
     30 C31      -145.2920  188.3330 -242.2940 ca        1 2V5     -0.021000
     31 C32      -144.8530  189.5890 -242.8130 ca        1 2V5     -0.208000
     32 C33        30.4440  -89.4880  -40.6120 c3        1 2V5     -0.217000
     33 C34        31.8280  -89.9760  -40.5050 c2        1 2V5      0.216000
     34 C35        32.9020  -89.1870  -40.5950 c1        1 2V5     -0.261000
     35 C36        33.0820  -85.5180  -40.4100 c2        1 2V5     -0.055000
     36 C37        34.3170  -85.4440  -40.9380 c2        1 2V5     -0.227000
     37 C38        35.2950  -86.4840  -40.9350 c2        1 2V5      0.143000
     38 C39        35.1120  -87.8390  -40.7770 c2        1 2V5     -0.200000
     39 C40        33.9280  -88.4980  -40.6730 c1        1 2V5      0.172000
     40 C41        71.1620   65.6470  320.8520 c2        1 2V5      0.111000
     41 C42        23.7970  -17.2170  134.1930 c2        1 2V5     -0.127000
     42 H1         29.4940  -93.8410  -42.7790 hc        1 2V5      0.116000
     43 H2         30.7450  -95.2840  -41.1200 hc        1 2V5      0.110000
     44 H3         29.2770  -95.3440  -40.0710 hc        1 2V5      0.110000
     45 H4         27.9600  -96.3910  -41.9730 hc        1 2V5      0.128000
     46 H5         29.4390  -96.3480  -43.0100 hc        1 2V5      0.128000
     47 H6         30.3620  -97.7070  -40.6480 h4        1 2V5      0.119000
     48 H7         26.4580  -18.7750  134.3650 h1        1 2V5      0.084000
     49 H8         26.8770  -17.0070  134.2540 h1        1 2V5      0.084000
     50 H9         25.8890  -17.6210  135.6580 h1        1 2V5      0.084000
     51 H13        75.2960   64.6430  320.9110 hc        1 2V5      0.117000
     52 H14        73.0390   64.1540  321.7810 h1        1 2V5      0.144500
     53 H15        73.3360   63.3110  320.1970 h1        1 2V5      0.144500
     54 H16        73.4650   64.1990  318.0240 hn        1 2V5      0.279500
     55 H17        28.9610 -101.0150  -41.3650 hn        1 2V5      0.276667
     56 H18        28.7960 -101.7980  -42.8370 hn        1 2V5      0.276667
     57 H19        26.7390 -103.4290  -43.0660 hn        1 2V5      0.242500
     58 H20        27.4170 -103.5310  -39.6380 hn        1 2V5      0.235000
     59 H21        28.0350  -93.8940  -41.7020 hc        1 2V5      0.116000
     60 H22      -146.5940  189.5840 -244.0270 ha        1 2V5      0.161000
     61 H23        29.8030  -90.9160  -39.1040 h1        1 2V5      0.119000
     62 H25      -146.5150  191.4280 -245.1720 h4        1 2V5      0.251000
     63 H27      -143.2390  191.0800 -242.6740 ha        1 2V5      0.163500
     64 H28      -141.9570  189.8580 -240.9820 ha        1 2V5      0.177000
     65 H29      -142.7650  187.6610 -240.1000 ha        1 2V5      0.175000
     66 H30      -144.9090  186.6880 -240.9490 ha        1 2V5      0.177000
     67 H31      -146.2360  187.8940 -242.6610 ha        1 2V5      0.163500
     68 H32        28.4680  -89.9140  -39.8560 h1        1 2V5      0.119000
     69 H33        30.3240  -88.5240  -40.0410 hc        1 2V5      0.151500
     70 H34        30.2380  -89.2430  -41.6960 hc        1 2V5      0.151500
     71 H35        31.9740  -91.0740  -40.3380 ha        1 2V5      0.220000
     72 H36        32.7000  -86.4170  -39.9020 ha        1 2V5      0.139000
     73 H37        32.3930  -84.6580  -40.4340 ha        1 2V5      0.139000
     74 H38        34.6570  -84.4880  -41.3890 ha        1 2V5      0.179000
     75 H39        36.3450  -86.1410  -41.0890 ha        1 2V5      0.177000
     76 H40        36.0210  -88.4830  -40.7460 ha        1 2V5      0.194000
     77 H41        70.2140   66.0510  320.4210 h4        1 2V5      0.213500
     78 H42        71.4090   65.8840  321.9100 h4        1 2V5      0.213500
     79 H43        22.9670  -17.0660  133.4790 h4        1 2V5      0.109000
     80 H44        23.5380  -17.0880  135.2610 h4        1 2V5      0.109000
     81 H11        74.3230   66.1700  320.9950 hc        1 2V5      0.117000
     82 C01        26.0780  -17.7360  134.5560 c3        1 2V5     -0.160000
     83 H082       72.1890   64.0400  316.8840 hn        1 2V5      0.279500
     84 H142       27.6420 -100.6970  -42.3260 hn        1 2V5      0.276667
     85 H163       25.7820 -103.5910  -41.6950 hn        1 2V5      0.242500
     86 H202       28.2370  -91.4990  -41.4740 hn        1 2V5      0.240000
     87 H12        74.6370   65.3820  319.3940 hc        1 2V5      0.117000
@<TRIPOS>BOND
     1    1    2 1   
     2    1   13 1   
     3    1   43 1   
     4    1   44 1   
     5    2    3 1   
     6    2   45 1   
     7    2   46 1   
     8    3   14 1   
     9    3   47 1   
    10    4   15 1   
    11    4   16 1   
    12    4   17 1   
    13    5   13 1   
    14    5   18 1   
    15    5   19 1   
    16    6   41 1   
    17    6   82 1   
    18    7    8 1   
    19    7   51 1   
    20    7   81 1   
    21    7   87 1   
    22    8    9 1   
    23    8   52 1   
    24    8   53 1   
    25    9   10 1   
    26    9   40 1   
    27   10   11 1   
    28   10   12 1   
    29   12   54 1   
    30   12   83 1   
    31   13   42 1   
    32   13   59 1   
    33   15   55 1   
    34   15   56 1   
    35   15   84 1   
    36   16   57 1   
    37   16   85 1   
    38   17   58 1   
    39   19   20 1   
    40   19   86 1   
    41   20   32 1   
    42   20   61 1   
    43   20   68 1   
    44   21   22 1   
    45   21   31 1   
    46   21   60 1   
    47   22   23 1   
    48   22   62 1   
    49   23   24 1   
    50   23   25 1   
    51   26   27 1   
    52   26   31 1   
    53   26   63 1   
    54   27   28 1   
    55   27   64 1   
    56   28   29 1   
    57   28   65 1   
    58   29   30 1   
    59   29   66 1   
    60   30   31 1   
    61   30   67 1   
    62   32   33 1   
    63   32   69 1   
    64   32   70 1   
    65   33   34 1   
    66   33   71 1   
    67   34   39 1   
    68   35   36 1   
    69   35   72 1   
    70   35   73 1   
    71   36   37 1   
    72   36   74 1   
    73   37   38 1   
    74   37   75 1   
    75   38   39 1   
    76   38   76 1   
    77   40   77 1   
    78   40   78 1   
    79   41   79 1   
    80   41   80 1   
    81   48   82 1   
    82   49   82 1   
    83   50   82 1   
@<TRIPOS>SUBSTRUCTURE
     1 2V5         1 TEMP              0 ****  ****    0 ROOT
