@<TRIPOS>MOLECULE
molecule
   84    86     1     0     0
SMALL
bcc


@<TRIPOS>ATOM
      1 C10          0.0000     0.0000     0.0000 c3         1 2V5      -0.101400
      2 C11         -0.5110    -1.3080     0.6090 c3         1 2V5      -0.085400
      3 C12         -2.0400    -1.3080     0.6090 c3         1 2V5       0.145400
      4 C15         -4.5190    -3.7560     1.7500 c2         1 2V5       0.628100
      5 C18          2.0330     1.2310    -0.7100 c          1 2V5       0.640100
      6 N02          4.0570     1.6310     5.4710 n3         1 2V5      -0.733600
      7 C03          4.3780     0.5890     4.4880 c3         1 2V5       0.144300
      8 C04          3.0790    -0.0210     3.9520 c3         1 2V5       0.117500
      9 N05          2.2260     1.0660     3.4480 n          1 2V5      -0.504800
     10 C06          1.6920     1.0110     2.2120 c          1 2V5       0.798100
     11 O07          0.9160     1.8720     1.8450 o          1 2V5      -0.651100
     12 N08          2.0180     0.0000     1.3820 ns         1 2V5      -0.604900
     13 C09          1.5300     0.0000     0.0000 c3         1 2V5       0.078700
     14 O13         -2.5160    -2.5290     1.1780 os         1 2V5      -0.238100
     15 N14         -3.9280    -2.6310     1.2250 nu         1 2V5      -0.701700
     16 N16         -5.8890    -3.8550     1.7950 nz         1 2V5      -0.773600
     17 N17         -3.7800    -4.7290     2.2030 n2         1 2V5      -0.786100
     18 O19          2.4060     2.1910    -0.0690 o          1 2V5      -0.549100
     19 N20          2.0660     1.2650    -2.0560 ns         1 2V5      -0.584900
     20 C21          2.5540     2.4620    -2.7470 c3         1 2V5       0.116900
     21 C22          1.9540     2.5250    -4.1280 c2         1 2V5      -0.037200
     22 C23          1.2140     3.5490    -4.4740 ce         1 2V5      -0.344100
     23 S24          0.5110     3.6240    -6.0880 sy         1 2V5       1.272200
     24 O25          0.8030     4.9200    -6.5930 o          1 2V5      -0.618300
     25 O26          0.8980     2.4270    -6.7490 o          1 2V5      -0.618300
     26 C27         -1.2380     3.5460    -5.8990 ca         1 2V5      -0.297500
     27 C28         -1.9710     4.7080    -5.7510 ca         1 2V5      -0.028000
     28 C29         -3.3430     4.6470    -5.6020 ca         1 2V5      -0.151500
     29 C30         -3.9850     3.4220    -5.6030 ca         1 2V5      -0.074000
     30 C31         -3.2520     2.2590    -5.7520 ca         1 2V5      -0.151500
     31 C32         -1.8800     2.3210    -5.9060 ca         1 2V5      -0.028000
     32 C33          4.0790     2.4010    -2.8560 c3         1 2V5      -0.088400
     33 C34          4.6930     2.4620    -1.4570 c3         1 2V5      -0.030100
     34 C35          6.1960     2.4020    -1.5650 ca         1 2V5      -0.088300
     35 C36          6.8410     1.1800    -1.5490 ca         1 2V5      -0.127000
     36 C37          8.2190     1.1240    -1.6470 ca         1 2V5      -0.124000
     37 C38          8.9510     2.2920    -1.7620 ca         1 2V5      -0.128000
     38 C39          8.3050     3.5140    -1.7790 ca         1 2V5      -0.124000
     39 C40          6.9270     3.5690    -1.6850 ca         1 2V5      -0.127000
     40 C41          1.9700     2.2150     4.3310 c3         1 2V5       0.117500
     41 C42          3.3130     2.7370     4.8520 c3         1 2V5       0.144300
     42 H1          -0.3610     0.0900    -1.0170 hc         1 2V5       0.081700
     43 H2          -0.3610     0.8360     0.5860 hc         1 2V5       0.081700
     44 H3          -0.1500    -2.1440     0.0230 hc         1 2V5       0.074700
     45 H4          -0.1500    -1.3970     1.6270 hc         1 2V5       0.074700
     46 H5          -2.4020    -0.4710     1.1950 h1         1 2V5       0.081700
     47 H6          -2.4020    -1.2190    -0.4080 h1         1 2V5       0.081700
     48 H7           5.0020     2.8610     6.8810 h1         1 2V5       0.037367
     49 H8           5.7810     1.2950     6.6140 h1         1 2V5       0.037367
     50 H9           5.9270     2.5740     5.4000 h1         1 2V5       0.037367
     51 H13          2.5670    -0.5440     4.7500 h1         1 2V5       0.055950
     52 H14          3.3060    -0.7080     3.1460 h1         1 2V5       0.055950
     53 H15          2.5980    -0.7470     1.7070 hn         1 2V5       0.321500
     54 H16          1.8910    -0.8840    -0.5110 h1         1 2V5       0.064700
     55 H17         -3.0270    -2.2560     0.9980 hn         1 2V5       0.590800
     56 H18         -6.1840    -4.6510     1.2650 hn         1 2V5       0.470467
     57 H19         -6.1850    -3.9590     2.7460 hn         1 2V5       0.470467
     58 H20         -4.2100    -5.5490     2.5850 hn         1 2V5       0.425400
     59 H21          1.7430     0.4790    -2.5850 hn         1 2V5       0.307500
     60 H22          2.2670     3.3440    -2.1870 h1         1 2V5       0.092700
     61 H23          2.2480     1.6380    -4.6760 ha         1 2V5       0.154000
     62 H25          1.0340     4.3500    -3.7670 h4         1 2V5       0.180000
     63 H27         -1.4690     5.6680    -5.7500 ha         1 2V5       0.151500
     64 H28         -3.9170     5.5580    -5.4850 ha         1 2V5       0.137000
     65 H29         -5.0610     3.3730    -5.4840 ha         1 2V5       0.134000
     66 H30         -3.7550     1.2990    -5.7550 ha         1 2V5       0.137000
     67 H31         -1.3070     1.4100    -6.0230 ha         1 2V5       0.151500
     68 H32          4.4320     3.2400    -3.4430 hc         1 2V5       0.056700
     69 H33          4.3690     1.4750    -3.3380 hc         1 2V5       0.056700
     70 H34          4.3400     1.6220    -0.8700 hc         1 2V5       0.060200
     71 H35          4.4030     3.3870    -0.9750 hc         1 2V5       0.060200
     72 H36          6.2670     0.2650    -1.4590 ha         1 2V5       0.126000
     73 H37          8.7250     0.1670    -1.6350 ha         1 2V5       0.131000
     74 H38         10.0310     2.2490    -1.8370 ha         1 2V5       0.133000
     75 H39          8.8780     4.4280    -1.8710 ha         1 2V5       0.131000
     76 H40          6.4210     4.5270    -1.6980 ha         1 2V5       0.126000
     77 H41          1.4680     2.9970     3.7730 h1         1 2V5       0.055950
     78 H42          1.3530     1.9020     5.1650 h1         1 2V5       0.055950
     79 H43          3.1370     3.5110     5.5890 h1         1 2V5       0.048200
     80 H44          3.8870     3.1410     4.0270 h1         1 2V5       0.048200
     81 H11          4.9700    -0.1840     4.9630 h1         1 2V5       0.048200
     82 C01          5.2710     2.1220     6.1350 c3         1 2V5       0.152100
     83 H163        -6.2970    -3.0270     1.4080 hn         1 2V5       0.470467
     84 H12          4.9360     1.0260     3.6680 h1         1 2V5       0.048200
@<TRIPOS>BOND
     1    29    30 ar  
     2    29    28 ar  
     3    30    31 ar  
     4    28    27 ar  
     5    31    26 ar  
     6    27    26 ar  
     7    26    23 1   
     8    24    23 2   
     9    23    22 1   
    10    23    25 2   
    11    22    21 2   
    12    14    15 1   
    13    14     3 1   
    14    17     4 2   
    15     2     3 1   
    16     2     1 1   
    17    15     4 1   
    18     4    16 1   
    19     1    13 1   
    20    21    20 1   
    21    19    20 1   
    22    19     5 1   
    23    13     5 1   
    24    13    12 1   
    25    32    20 1   
    26    32    33 1   
    27     5    18 2   
    28    11    10 2   
    29    36    35 ar  
    30    36    37 ar  
    31    35    34 ar  
    32    12    10 1   
    33    37    38 ar  
    34    10     9 1   
    35    34    33 1   
    36    34    39 ar  
    37    38    39 ar  
    38     9     8 1   
    39     9    40 1   
    40     8     7 1   
    41    40    41 1   
    42     7     6 1   
    43    41     6 1   
    44     6    82 1   
    45     1    42 1   
    46     1    43 1   
    47     2    44 1   
    48     2    45 1   
    49     3    46 1   
    50     3    47 1   
    51    82    48 1   
    52    82    49 1   
    53    82    50 1   
    54     7    81 1   
    55     7    84 1   
    56     8    51 1   
    57     8    52 1   
    58    12    53 1   
    59    13    54 1   
    60    15    55 1   
    61    16    56 1   
    62    16    57 1   
    63    17    58 1   
    64    19    59 1   
    65    20    60 1   
    66    21    61 1   
    67    22    62 1   
    68    27    63 1   
    69    28    64 1   
    70    29    65 1   
    71    30    66 1   
    72    31    67 1   
    73    32    68 1   
    74    32    69 1   
    75    33    70 1   
    76    33    71 1   
    77    35    72 1   
    78    36    73 1   
    79    37    74 1   
    80    38    75 1   
    81    39    76 1   
    82    40    77 1   
    83    40    78 1   
    84    41    79 1   
    85    41    80 1   
    86    83    16 1   
@<TRIPOS>SUBSTRUCTURE
     1 2V5         1 TEMP              0 ****  ****    0 ROOT
