@<TRIPOS>MOLECULE
2V6
   34    36     1     0     0
SMALL
bcc


@<TRIPOS>ATOM
      1 F8           0.0000     0.0000     0.0000 f          1 2V6      -0.108900
      2 C5           1.3510     0.0000     0.0000 ca         1 2V6       0.245900
      3 C6           2.0410     0.0000     1.1990 ca         1 2V6      -0.215500
      4 C4           2.0430    -0.0060    -1.1980 ca         1 2V6      -0.317300
      5 C7           1.2890    -0.0100    -2.5030 c3         1 2V6       0.664200
      6 F3           1.0560     1.3080    -2.9120 f          1 2V6      -0.202633
      7 F2           2.0440    -0.6730    -3.4760 f          1 2V6      -0.202633
      8 F1           0.0660    -0.6680    -2.3320 f          1 2V6      -0.202633
      9 C3           3.4280    -0.0060    -1.2010 ca         1 2V6       0.245900
     10 F7           4.1010    -0.0110    -2.3720 f          1 2V6      -0.108900
     11 C2           4.1220    -0.0010    -0.0050 ca         1 2V6      -0.215500
     12 C1           3.4300    -0.0010     1.1990 ca         1 2V6       0.109600
     13 N1           4.1300     0.0060     2.4090 nu         1 2V6      -0.211000
     14 C8           5.5010    -0.1340     2.4120 cc         1 2V6      -0.056700
     15 C9           6.3060     0.8340     2.9800 cd         1 2V6      -0.250300
     16 C10          7.6870     0.6600     2.9640 cd         1 2V6       0.416600
     17 C13          8.5820     1.7060     3.5780 c3         1 2V6      -0.043400
     18 N2           6.0900    -1.2360     1.8610 na         1 2V6       0.471200
     19 C11          7.4510    -1.3640     1.8690 cc         1 2V6       0.231500
     20 N3           8.2180    -0.4150     2.4180 nc         1 2V6      -0.518000
     21 N5           5.5890    -2.3780     1.2260 nc         1 2V6      -0.708100
     22 C12          6.6190    -3.1160     0.8920 cd         1 2V6       0.488300
     23 N4           7.7400    -2.5160     1.2740 nd         1 2V6      -0.321300
     24 C14          6.5440    -4.4430     0.1830 c3         1 2V6       0.600600
     25 F6           5.2330    -4.9280     0.2380 f          1 2V6      -0.195300
     26 F4           6.9240    -4.2810    -1.1530 f          1 2V6      -0.195300
     27 F5           7.4040    -5.3550     0.8050 f          1 2V6      -0.195300
     28 H1           1.4990    -0.0000     2.1370 ha         1 2V6       0.134000
     29 H2           5.2060    -0.0010    -0.0080 ha         1 2V6       0.134000
     30 H3           3.6340     0.0990     3.2730 hn         1 2V6       0.305800
     31 H4           5.8660     1.6190     3.5840 ha         1 2V6       0.143000
     32 H5           9.6180     1.4530     3.3850 hc         1 2V6       0.025700
     33 H6           8.3600     2.6720     3.1410 hc         1 2V6       0.025700
     34 H7           8.4120     1.7450     4.6470 hc         1 2V6       0.025700
@<TRIPOS>BOND
     1     1     2 1   
     2     2     3 ar  
     3     2     4 ar  
     4     3    12 ar  
     5     3    28 1   
     6     4     5 1   
     7     4     9 ar  
     8     5     6 1   
     9     5     7 1   
    10     5     8 1   
    11     9    10 1   
    12     9    11 ar  
    13    11    12 ar  
    14    11    29 1   
    15    12    13 1   
    16    13    14 1   
    17    13    30 1   
    18    14    15 2   
    19    14    18 1   
    20    15    16 1   
    21    15    31 1   
    22    16    17 1   
    23    16    20 2   
    24    17    32 1   
    25    17    33 1   
    26    17    34 1   
    27    18    19 1   
    28    18    21 1   
    29    19    20 1   
    30    19    23 2   
    31    21    22 2   
    32    22    23 1   
    33    22    24 1   
    34    24    25 1   
    35    24    26 1   
    36    24    27 1   
@<TRIPOS>SUBSTRUCTURE
     1 2V6         1 TEMP              0 ****  ****    0 ROOT
