@<TRIPOS>MOLECULE
molecule
   33    34     1     0     0
SMALL
bcc


@<TRIPOS>ATOM
      1 C14          0.0000     0.0000     0.0000 c3         1 2V7      -0.127100
      2 C13          1.5300     0.0000     0.0000 c3         1 2V7       0.146100
      3 O03          2.0080    -1.1660    -0.6740 oh         1 2V7      -0.590800
      4 C11          2.0400     0.0000     1.4420 c3         1 2V7       0.203400
      5 O02          1.4710    -1.1040     2.1490 oh         1 2V7      -0.587800
      6 C09          3.5430    -0.1230     1.4440 ca         1 2V7      -0.110300
      7 C10          4.3060     0.9890     1.6220 ca         1 2V7      -0.108000
      8 C05          5.7070     0.8780     1.6300 ca         1 2V7      -0.072000
      9 C06          6.5270     2.0050     1.8120 ca         1 2V7      -0.079000
     10 C01          7.8800     1.8620     1.8140 ca         1 2V7      -0.207000
     11 C02          8.4700     0.6060     1.6380 ca         1 2V7       0.140100
     12 O01          9.8230     0.4960     1.6460 os         1 2V7      -0.330900
     13 C12         10.5720     1.6980     1.8370 c3         1 2V7       0.129700
     14 C03          7.7030    -0.5100     1.4600 ca         1 2V7      -0.164000
     15 C04          6.3030    -0.3960     1.4520 ca         1 2V7       0.007000
     16 C07          5.4820    -1.5220     1.2700 ca         1 2V7      -0.138000
     17 C08          4.1280    -1.3750     1.2690 ca         1 2V7      -0.065000
     18 H1          -0.3610     0.6970     0.7460 hc         1 2V7       0.044033
     19 H2          -0.3610    -0.9950     0.2310 hc         1 2V7       0.044033
     20 H3          -0.3610     0.2980    -0.9770 hc         1 2V7       0.044033
     21 H4           1.8910     0.8850    -0.5100 h1         1 2V7       0.036700
     22 H5           1.7990    -1.1070    -1.5920 ho         1 2V7       0.400000
     23 H6           1.7530     0.9250     1.9270 h1         1 2V7       0.039700
     24 H7           1.1230    -0.8040     2.9720 ho         1 2V7       0.399000
     25 H8           3.8360     1.9350     1.8630 ha         1 2V7       0.124000
     26 H9           6.0830     2.9840     1.9490 ha         1 2V7       0.130000
     27 H10          8.5090     2.7330     1.9530 ha         1 2V7       0.133000
     28 H11         10.3110     2.1380     2.7920 h1         1 2V7       0.040033
     29 H12         11.6310     1.4700     1.8220 h1         1 2V7       0.040033
     30 H13         10.3420     2.3970     1.0420 h1         1 2V7       0.040033
     31 H14          8.1710    -1.4770     1.3250 ha         1 2V7       0.147000
     32 H15          5.9230    -2.5020     1.1330 ha         1 2V7       0.136000
     33 H16          3.4970    -2.2430     1.1220 ha         1 2V7       0.157000
@<TRIPOS>BOND
     1    12    13 1
     2    12    11 1
     3    10    11 ar
     4    10     9 ar
     5    11    14 ar
     6     9     8 ar
     7    14    15 ar
     8     8    15 ar
     9     8     7 ar
    10    15    16 ar
    11     7     6 ar
    12    16    17 ar
    13     6    17 ar
    14     6     4 1
    15     4     2 1
    16     4     5 1
    17     2     3 1
    18     2     1 1
    19     1    18 1
    20     1    19 1
    21     1    20 1
    22     2    21 1
    23     3    22 1
    24     4    23 1
    25     5    24 1
    26     7    25 1
    27     9    26 1
    28    10    27 1
    29    13    28 1
    30    13    29 1
    31    13    30 1
    32    14    31 1
    33    16    32 1
    34    17    33 1
@<TRIPOS>SUBSTRUCTURE
     1 2V7         1 TEMP              0 ****  ****    0 ROOT
