@<TRIPOS>MOLECULE
2V7
   33    34     1     0     0
SMALL
bcc


@<TRIPOS>ATOM
      1 C14         0.0570    0.2530   -0.1570 c3        1 2V7     -0.132100
      2 C13         1.4350   -0.3550    0.0090 c3        1 2V7      0.109100
      3 O03         1.3890   -1.7790   -0.0390 oh        1 2V7     -0.615800
      4 C11         2.0310    0.0120    1.3880 c3        1 2V7      0.196400
      5 O02         1.4690   -0.7950    2.4040 oh        1 2V7     -0.587800
      6 C09         3.5310   -0.0680    1.3730 ca        1 2V7     -0.127300
      7 C10         4.2930    1.0300    1.7020 ca        1 2V7     -0.089000
      8 C05         5.7120    0.9570    1.6960 ca        1 2V7     -0.070000
      9 C06         6.5150    2.0800    2.0300 ca        1 2V7     -0.083000
     10 C01         7.8860    1.9980    2.0240 ca        1 2V7     -0.186000
     11 C02         8.5110    0.7700    1.6790 ca        1 2V7      0.124100
     12 O01         9.8820    0.5910    1.6410 os        1 2V7     -0.327900
     13 C12        10.6760    1.7150    2.0010 c3        1 2V7      0.114700
     14 C03         7.7590   -0.3470    1.3480 ca        1 2V7     -0.160000
     15 C04         6.3450   -0.2660    1.3530 ca        1 2V7      0.000000
     16 C07         5.5350   -1.3890    1.0210 ca        1 2V7     -0.129000
     17 C08         4.1680   -1.2920    1.0300 ca        1 2V7     -0.105000
     18 H1          0.1270    1.3670   -0.1540 hc        1 2V7      0.048367
     19 H2         -0.4000   -0.0730   -1.1220 hc        1 2V7      0.048367
     20 H3         -0.6050   -0.0700    0.6830 hc        1 2V7      0.048367
     21 H4          2.1220    0.0050   -0.8070 h1        1 2V7      0.048700
     22 H5          0.7620   -2.0230   -0.7290 ho        1 2V7      0.410000
     23 H6          1.7010    1.0580    1.6570 h1        1 2V7      0.076700
     24 H7          1.6750   -1.7160    2.1900 ho        1 2V7      0.417000
     25 H8          3.8180    1.9840    1.9790 ha        1 2V7      0.131000
     26 H9          6.0170    3.0250    2.2970 ha        1 2V7      0.133000
     27 H10         8.4950    2.8740    2.2850 ha        1 2V7      0.138000
     28 H11        11.7240    1.3310    1.9100 h1        1 2V7      0.043700
     29 H12        10.5060    2.5620    1.2930 h1        1 2V7      0.043700
     30 H13        10.4630    2.0310    3.0510 h1        1 2V7      0.043700
     31 H14         8.2540   -1.2910    1.0840 ha        1 2V7      0.151000
     32 H15         6.0320   -2.3350    0.7560 ha        1 2V7      0.136000
     33 H16         3.5340   -2.1540    0.7620 ha        1 2V7      0.150000
@<TRIPOS>BOND
     1    1    2 1   
     2    1   18 1   
     3    1   19 1   
     4    1   20 1   
     5    2    3 1   
     6    2    4 1   
     7    2   21 1   
     8    3   22 1   
     9    4    5 1   
    10    4    6 1   
    11    4   23 1   
    12    5   24 1   
    13    6    7 ar  
    14    6   17 ar  
    15    7    8 ar  
    16    7   25 1   
    17    8    9 ar  
    18    8   15 ar  
    19    9   10 ar  
    20    9   26 1   
    21   10   11 ar  
    22   10   27 1   
    23   11   12 1   
    24   11   14 ar  
    25   12   13 1   
    26   13   28 1   
    27   13   29 1   
    28   13   30 1   
    29   14   15 ar  
    30   14   31 1   
    31   15   16 ar  
    32   16   17 ar  
    33   16   32 1   
    34   17   33 1   
@<TRIPOS>SUBSTRUCTURE
     1 2V7         1 TEMP              0 ****  ****    0 ROOT
