@<TRIPOS>MOLECULE
molecule
   47    50     1     0     0
SMALL
bcc


@<TRIPOS>ATOM
      1 Cl1          0.0000     0.0000     0.0000 cl         1 2V8      -0.119400
      2 C2           1.7370     0.0000     0.0000 ca         1 2V8       0.025400
      3 C3           2.4270     0.0000     1.1970 ca         1 2V8      -0.104000
      4 C5           3.8150     0.0010     1.1960 ca         1 2V8       0.021800
      5 C6           4.5060     0.0020    -0.0090 ca         1 2V8      -0.075300
      6 C7           3.8100     0.0010    -1.2020 ca         1 2V8      -0.125000
      7 C9           2.4270    -0.0050    -1.1990 ca         1 2V8      -0.122000
      8 C11          6.0130     0.0030    -0.0150 c3         1 2V8      -0.060800
      9 N15          4.5180     0.0000     2.4070 na         1 2V8      -0.131000
     10 C16          4.9260    -1.1030     3.1090 cc         1 2V8       0.421000
     11 N17          5.5550    -0.7160     4.1920 nc         1 2V8      -0.627000
     12 C18          5.5820     0.6300     4.2400 cc         1 2V8       0.351800
     13 C19          4.9310     1.1050     3.1070 cd         1 2V8      -0.180600
     14 C20          4.7170     2.5170     2.7360 ca         1 2V8       0.024000
     15 C21          4.9420     2.9400     1.4240 ca         1 2V8      -0.128000
     16 C23          4.7400     4.2620     1.0850 ca         1 2V8       0.013400
     17 C24          4.3140     5.1690     2.0420 ca         1 2V8      -0.131000
     18 C26          4.0890     4.7550     3.3430 ca         1 2V8      -0.136000
     19 C28          4.2810     3.4350     3.6940 ca         1 2V8      -0.030000
     20 Cl2          5.0210     4.7910    -0.5450 cl         1 2V8      -0.155400
     21 C31          6.1950     1.4490     5.2960 c          1 2V8       0.802100
     22 O32          6.8030     0.8540     6.3420 o          1 2V8      -0.819800
     23 O33          6.1530     2.6610     5.2270 o          1 2V8      -0.819800
     24 C35          4.6940    -2.5060     2.7090 ca         1 2V8      -0.083500
     25 C36          4.8650    -3.5360     3.6340 ca         1 2V8      -0.090000
     26 C38          4.6460    -4.8450     3.2530 ca         1 2V8      -0.092300
     27 C39          4.2580    -5.1360     1.9580 ca         1 2V8      -0.142000
     28 C41          4.0880    -4.1190     1.0350 ca         1 2V8      -0.132000
     29 C43          4.2980    -2.8070     1.4040 ca         1 2V8      -0.151000
     30 C45          4.8290    -5.9590     4.2520 c3         1 2V8      -0.043800
     31 H1           1.8850    -0.0010     2.1350 ha         1 2V8       0.163000
     32 H2           4.3490    -0.0000    -2.1420 ha         1 2V8       0.137000
     33 H3           1.8840    -0.0050    -2.1360 ha         1 2V8       0.137000
     34 H4           6.3730    -0.9590    -0.3610 hc         1 2V8       0.058700
     35 H5           6.3780     0.1850     0.9890 hc         1 2V8       0.058700
     36 H6           6.3710     0.7820    -0.6760 hc         1 2V8       0.058700
     37 H7           5.2760     2.2320     0.6750 ha         1 2V8       0.137000
     38 H8           4.1590     6.2060     1.7710 ha         1 2V8       0.124000
     39 H9           3.7530     5.4690     4.0850 ha         1 2V8       0.129000
     40 H10          4.1040     3.1140     4.7140 ha         1 2V8       0.178000
     41 H12          5.1680    -3.3100     4.6490 ha         1 2V8       0.166000
     42 H13          4.0900    -6.1650     1.6640 ha         1 2V8       0.117000
     43 H14          3.7830    -4.3540     0.0220 ha         1 2V8       0.119000
     44 H15          4.1640    -2.0120     0.6800 ha         1 2V8       0.140000
     45 H16          5.7900    -5.8520     4.7400 hc         1 2V8       0.039367
     46 H17          4.7880    -6.9130     3.7400 hc         1 2V8       0.039367
     47 H18          4.0400    -5.9130     4.9930 hc         1 2V8       0.039367
@<TRIPOS>BOND
     1    23    21 1   
     2    22    21 1   
     3    21    12 1   
     4    12    11 1   
     5    12    13 2   
     6    11    10 2   
     7    13    14 1   
     8    13     9 1   
     9    14    19 ar  
    10    14    15 ar  
    11    19    18 ar  
    12    18    17 ar  
    13    15    16 ar  
    14    16    17 ar  
    15    16    20 1   
    16    10     9 1   
    17    10    24 1   
    18    30    26 1   
    19    25    24 ar  
    20    25    26 ar  
    21     9     4 1   
    22    24    29 ar  
    23    26    27 ar  
    24     3     4 ar  
    25     3     2 ar  
    26     4     5 ar  
    27    29    28 ar  
    28    27    28 ar  
    29     1     2 1   
    30     2     7 ar  
    31     5     8 1   
    32     5     6 ar  
    33     7     6 ar  
    34     3    31 1   
    35     6    32 1   
    36     7    33 1   
    37     8    34 1   
    38     8    35 1   
    39     8    36 1   
    40    15    37 1   
    41    17    38 1   
    42    18    39 1   
    43    19    40 1   
    44    25    41 1   
    45    27    42 1   
    46    28    43 1   
    47    29    44 1   
    48    30    45 1   
    49    30    46 1   
    50    30    47 1   
@<TRIPOS>SUBSTRUCTURE
     1 2V8         1 TEMP              0 ****  ****    0 ROOT
