@<TRIPOS>MOLECULE
2V8
   47    50     1     0     0
SMALL
bcc


@<TRIPOS>ATOM
      1 CL1         0.0910   -0.1310    0.0520 cl        1 2V8     -0.108400
      2 C2          1.7910   -0.0630   -0.0380 ca        1 2V8      0.013400
      3 C3          2.5410   -0.0580    1.1380 ca        1 2V8     -0.105000
      4 C5          3.9490   -0.0060    1.0740 ca        1 2V8      0.027800
      5 C6          4.5870    0.0470   -0.1940 ca        1 2V8     -0.067300
      6 C7          3.8020    0.0440   -1.3510 ca        1 2V8     -0.131000
      7 C9          2.4130   -0.0110   -1.2870 ca        1 2V8     -0.124000
      8 C11         6.0640    0.1120   -0.3100 c3        1 2V8     -0.065800
      9 N15         4.7030   -0.0090    2.2670 na        1 2V8     -0.156000
     10 C16         5.1460   -1.1500    2.9780 cc        1 2V8      0.430000
     11 N17         5.8380   -0.7800    4.0910 nd        1 2V8     -0.639000
     12 C18         5.8210    0.6060    4.1400 cd        1 2V8      0.346800
     13 C19         5.0980    1.1190    3.0280 cc        1 2V8     -0.186600
     14 C20         4.7480    2.4980    2.7490 ca        1 2V8      0.030000
     15 C21         4.6580    3.0060    1.4460 ca        1 2V8     -0.138000
     16 C23         4.3160    4.3450    1.2430 ca        1 2V8      0.011400
     17 C24         4.0690    5.1990    2.3180 ca        1 2V8     -0.142000
     18 C26         4.1710    4.6930    3.6140 ca        1 2V8     -0.130000
     19 C28         4.5030    3.3600    3.8360 ca        1 2V8     -0.100000
     20 CL2         4.2040    4.9470   -0.3530 cl        1 2V8     -0.142400
     21 C31         6.5200    1.3950    5.2500 c         1 2V8      0.841100
     22 O32         7.7560    1.5770    5.1350 o         1 2V8     -0.806800
     23 O33         5.7930    1.8160    6.1910 o         1 2V8     -0.806800
     24 C35         4.8610   -2.5410    2.6210 ca        1 2V8     -0.088500
     25 C36         4.6080   -3.4530    3.6580 ca        1 2V8     -0.093000
     26 C38         4.3480   -4.7970    3.3730 ca        1 2V8     -0.090300
     27 C39         4.3370   -5.2330    2.0430 ca        1 2V8     -0.138000
     28 C41         4.5930   -4.3310    1.0130 ca        1 2V8     -0.137000
     29 C43         4.8580   -2.9920    1.2960 ca        1 2V8     -0.132000
     30 C45         4.0990   -5.7500    4.4800 c3        1 2V8     -0.048800
     31 H1          2.0350   -0.0920    2.1170 ha        1 2V8      0.166000
     32 H2          4.2940    0.0900   -2.3340 ha        1 2V8      0.134000
     33 H3          1.8160   -0.0100   -2.2100 ha        1 2V8      0.140000
     34 H4          6.5360   -0.7960    0.1430 hc        1 2V8      0.057700
     35 H5          6.3810    0.1790   -1.3800 hc        1 2V8      0.057700
     36 H6          6.4640    1.0050    0.2350 hc        1 2V8      0.057700
     37 H7          4.8620    2.3610    0.5800 ha        1 2V8      0.140000
     38 H8          3.8040    6.2520    2.1490 ha        1 2V8      0.129000
     39 H9          3.9920    5.3560    4.4730 ha        1 2V8      0.131000
     40 H10         4.6040    2.9700    4.8710 ha        1 2V8      0.212000
     41 H12         4.6220   -3.1090    4.7050 ha        1 2V8      0.161000
     42 H13         4.1290   -6.2870    1.8140 ha        1 2V8      0.119000
     43 H14         4.5890   -4.6760   -0.0310 ha        1 2V8      0.120000
     44 H15         5.0660   -2.2950    0.4710 ha        1 2V8      0.136000
     45 H16         3.5650   -6.6610    4.1170 hc        1 2V8      0.039700
     46 H17         5.0720   -6.0690    4.9330 hc        1 2V8      0.039700
     47 H18         3.4830   -5.2730    5.2820 hc        1 2V8      0.039700
@<TRIPOS>BOND
     1    1    2 1   
     2    2    3 ar  
     3    2    7 ar  
     4    3    4 ar  
     5    3   31 1   
     6    4    5 ar  
     7    4    9 1   
     8    5    6 ar  
     9    5    8 1   
    10    6    7 ar  
    11    6   32 1   
    12    7   33 1   
    13    8   34 1   
    14    8   35 1   
    15    8   36 1   
    16    9   10 1   
    17    9   13 1   
    18   10   11 2   
    19   10   24 1   
    20   11   12 1   
    21   12   13 2   
    22   12   21 1   
    23   13   14 1   
    24   14   15 ar  
    25   14   19 ar  
    26   15   16 ar  
    27   15   37 1   
    28   16   17 ar  
    29   16   20 1   
    30   17   18 ar  
    31   17   38 1   
    32   18   19 ar  
    33   18   39 1   
    34   19   40 1   
    35   21   22 1   
    36   21   23 1   
    37   24   25 ar  
    38   24   29 ar  
    39   25   26 ar  
    40   25   41 1   
    41   26   27 ar  
    42   26   30 1   
    43   27   28 ar  
    44   27   42 1   
    45   28   29 ar  
    46   28   43 1   
    47   29   44 1   
    48   30   45 1   
    49   30   46 1   
    50   30   47 1   
@<TRIPOS>SUBSTRUCTURE
     1 2V8         1 TEMP              0 ****  ****    0 ROOT
