@<TRIPOS>MOLECULE
molecule
   52    59     1     0     0
SMALL
bcc


@<TRIPOS>ATOM
      1 O2           0.0000     0.0000     0.0000 o          1 2V9      -0.475100
      2 C25          1.2150     0.0000     0.0000 c          1 2V9       0.716100
      3 N3           2.0060     0.0000     1.0880 nc         1 2V9      -0.659100
      4 C24          3.2720     0.0000     0.7650 cd         1 2V9       0.573800
      5 C14          3.4050     0.0010    -0.6970 ca         1 2V9      -0.213900
      6 C13          2.0880    -0.0070    -1.1990 ca         1 2V9      -0.168600
      7 C12          1.8550     0.0010    -2.5750 cp         1 2V9       0.005000
      8 C11          0.6770     0.0990    -3.4330 cp         1 2V9      -0.091000
      9 C10         -0.6830     0.2060    -3.1340 ca         1 2V9      -0.048000
     10 C9          -1.5550     0.2910    -4.2070 ca         1 2V9      -0.168000
     11 C8          -1.1040     0.2720    -5.5140 ca         1 2V9      -0.088000
     12 C7           0.2400     0.1600    -5.8320 ca         1 2V9      -0.171000
     13 C6           1.1390     0.0670    -4.7710 ca         1 2V9       0.014800
     14 N1           2.5030    -0.0930    -4.7670 na         1 2V9      -0.099300
     15 C23          2.9540    -0.0700    -3.4560 ca         1 2V9      -0.003200
     16 C22          4.2560    -0.0710    -2.9640 ca         1 2V9       0.003800
     17 C15          4.4960     0.0110    -1.5800 cp         1 2V9      -0.009000
     18 C16          5.9450     0.1010    -1.4420 cp         1 2V9      -0.097000
     19 C17          6.7660     0.2260    -0.3180 ca         1 2V9      -0.062000
     20 C18          8.1300     0.2920    -0.5440 ca         1 2V9      -0.167000
     21 C19          8.6610     0.2380    -1.8200 ca         1 2V9      -0.091000
     22 C20          7.8660     0.1110    -2.9470 ca         1 2V9      -0.167000
     23 C21          6.4880     0.0400    -2.7490 ca         1 2V9       0.037800
     24 N2           5.4610    -0.1190    -3.6490 na         1 2V9      -0.074300
     25 C2           5.5700    -0.3440    -5.0950 c3         1 2V9       0.284500
     26 C1           6.9120    -0.9970    -5.4310 c3         1 2V9      -0.103100
     27 O1           4.4900    -1.1630    -5.5490 os         1 2V9      -0.380600
     28 C5           3.3760    -0.3190    -5.9230 c3         1 2V9       0.263800
     29 C4           3.9880     1.0240    -6.3670 c3         1 2V9      -0.154400
     30 C3           5.4320     1.0060    -5.8250 c3         1 2V9       0.121800
     31 O4           5.6330     2.0870    -4.9130 oh         1 2V9      -0.573800
     32 C26          6.4330     1.0940    -6.9780 c3         1 2V9       0.111400
     33 O3           6.1720     2.2690    -7.7480 oh         1 2V9      -0.616800
     34 H1           3.9870    -0.5410     1.3730 h4         1 2V9       0.055800
     35 H2          -1.0390     0.2220    -2.1110 ha         1 2V9       0.168000
     36 H3          -2.6170     0.3810    -4.0170 ha         1 2V9       0.133000
     37 H4          -1.8270     0.3420    -6.3180 ha         1 2V9       0.129000
     38 H5           0.5770     0.1460    -6.8610 ha         1 2V9       0.131000
     39 H6           6.3540     0.2690     0.6830 ha         1 2V9       0.138000
     40 H7           8.8000     0.3920     0.3010 ha         1 2V9       0.130000
     41 H8           9.7360     0.2940    -1.9420 ha         1 2V9       0.128000
     42 H9           8.2960     0.0690    -3.9400 ha         1 2V9       0.136000
     43 H10          7.6700    -0.2310    -5.5400 hc         1 2V9       0.065700
     44 H11          7.1950    -1.6730    -4.6330 hc         1 2V9       0.065700
     45 H12          6.8220    -1.5500    -6.3580 hc         1 2V9       0.065700
     46 H13          2.8180    -0.7680    -6.7370 h2         1 2V9       0.107700
     47 H14          3.4350     1.8500    -5.9360 hc         1 2V9       0.087700
     48 H15          3.9930     1.0960    -7.4480 hc         1 2V9       0.087700
     49 H16          5.6010     2.9050    -5.3820 ho         1 2V9       0.425000
     50 H17          7.4400     1.1390    -6.5800 h1         1 2V9       0.039700
     51 H18          6.3340     0.2190    -7.6100 h1         1 2V9       0.039700
     52 H19          6.8210     2.3510    -8.4270 ho         1 2V9       0.416000
@<TRIPOS>BOND
     1    11    10 ar  
     2    11    12 ar  
     3    10     9 ar  
     4    12    13 ar  
     5     9     8 ar  
     6    13     8 ar  
     7    13    14 1   
     8    29    28 1   
     9    29    30 1   
    10     8     7 1   
    11    28    14 1   
    12    28    27 1   
    13    14    15 1   
    14    33    32 1   
    15    32    30 1   
    16    30    31 1   
    17    30    25 1   
    18     7    15 ar  
    19     7     6 ar  
    20    15    16 ar  
    21    27    25 1   
    22     1     2 2   
    23    25    24 1   
    24    25    26 1   
    25     6     2 1   
    26     6     5 ar  
    27    16    24 1   
    28    16    17 ar  
    29     2     3 1   
    30    24    23 1   
    31     5    17 ar  
    32     5     4 1   
    33    17    18 1   
    34     3     4 2   
    35    23    18 ar  
    36    23    22 ar  
    37    18    19 ar  
    38    22    21 ar  
    39    19    20 ar  
    40    21    20 ar  
    41     4    34 1   
    42     9    35 1   
    43    10    36 1   
    44    11    37 1   
    45    12    38 1   
    46    19    39 1   
    47    20    40 1   
    48    21    41 1   
    49    22    42 1   
    50    26    43 1   
    51    26    44 1   
    52    26    45 1   
    53    28    46 1   
    54    29    47 1   
    55    29    48 1   
    56    31    49 1   
    57    32    50 1   
    58    32    51 1   
    59    33    52 1   
@<TRIPOS>SUBSTRUCTURE
     1 2V9         1 TEMP              0 ****  ****    0 ROOT
