@<TRIPOS>MOLECULE
2V9
   52    59     1     0     0
SMALL
bcc


@<TRIPOS>ATOM
      1 O2           0.0000     0.0000     0.0000 o          1 2V9      -0.510100
      2 C25          1.2150     0.0000     0.0000 c          1 2V9       0.734100
      3 N3           2.0060     0.0000     1.0880 nc         1 2V9      -0.591100
      4 C24          3.2720     0.0000     0.7650 cd         1 2V9       0.574800
      5 C14          3.4050     0.0010    -0.6970 ca         1 2V9      -0.203900
      6 C13          2.0880    -0.0070    -1.1990 ca         1 2V9      -0.170600
      7 C12          1.8550     0.0010    -2.5750 cp         1 2V9       0.017000
      8 C11          0.6770     0.0990    -3.4330 cp         1 2V9      -0.087000
      9 C10         -0.6830     0.2060    -3.1340 ca         1 2V9      -0.020000
     10 C9          -1.5550     0.2910    -4.2070 ca         1 2V9      -0.142000
     11 C8          -1.1040     0.2720    -5.5140 ca         1 2V9      -0.062000
     12 C7           0.2400     0.1600    -5.8320 ca         1 2V9      -0.139000
     13 C6           1.1390     0.0670    -4.7710 ca         1 2V9      -0.149200
     14 N1           2.5030    -0.0930    -4.7670 na         1 2V9       0.335700
     15 C23          2.9540    -0.0700    -3.4560 ca         1 2V9      -0.154200
     16 C22          4.2560    -0.0710    -2.9640 ca         1 2V9      -0.148200
     17 C15          4.4960     0.0110    -1.5800 cp         1 2V9      -0.002000
     18 C16          5.9450     0.1010    -1.4420 cp         1 2V9      -0.093000
     19 C17          6.7660     0.2260    -0.3180 ca         1 2V9      -0.028000
     20 C18          8.1300     0.2920    -0.5440 ca         1 2V9      -0.142000
     21 C19          8.6610     0.2380    -1.8200 ca         1 2V9      -0.063000
     22 C20          7.8660     0.1110    -2.9470 ca         1 2V9      -0.148000
     23 C21          6.4880     0.0400    -2.7490 ca         1 2V9      -0.128200
     24 N2           5.4610    -0.1190    -3.6490 na         1 2V9       0.372700
     25 C2           5.5700    -0.3440    -5.0950 c3         1 2V9       0.159500
     26 C1           6.9120    -0.9970    -5.4310 c3         1 2V9      -0.042100
     27 O1           4.4900    -1.1630    -5.5490 os         1 2V9      -0.371600
     28 C5           3.3760    -0.3190    -5.9230 c3         1 2V9       0.176800
     29 C4           3.9880     1.0240    -6.3670 c3         1 2V9      -0.112400
     30 C3           5.4320     1.0060    -5.8250 c3         1 2V9       0.120800
     31 O4           5.6330     2.0870    -4.9130 oh         1 2V9      -0.568800
     32 C26          6.4330     1.0940    -6.9780 c3         1 2V9       0.184400
     33 O3           6.1720     2.2690    -7.7480 oh         1 2V9      -0.597800
     34 H1           3.9870    -0.5410     1.3730 h4         1 2V9      -0.000200
     35 H2          -1.0390     0.2220    -2.1110 ha         1 2V9       0.138000
     36 H3          -2.6170     0.3810    -4.0170 ha         1 2V9       0.105000
     37 H4          -1.8270     0.3420    -6.3180 ha         1 2V9       0.097000
     38 H5           0.5770     0.1460    -6.8610 ha         1 2V9       0.107000
     39 H6           6.3540     0.2690     0.6830 ha         1 2V9       0.108000
     40 H7           8.8000     0.3920     0.3010 ha         1 2V9       0.103000
     41 H8           9.7360     0.2940    -1.9420 ha         1 2V9       0.097000
     42 H9           8.2960     0.0690    -3.9400 ha         1 2V9       0.120000
     43 H10          7.6700    -0.2310    -5.5400 hc         1 2V9       0.036700
     44 H11          7.1950    -1.6730    -4.6330 hc         1 2V9       0.036700
     45 H12          6.8220    -1.5500    -6.3580 hc         1 2V9       0.036700
     46 H13          2.8180    -0.7680    -6.7370 h2         1 2V9       0.059700
     47 H14          3.4350     1.8500    -5.9360 hc         1 2V9       0.057200
     48 H15          3.9930     1.0960    -7.4480 hc         1 2V9       0.057200
     49 H16          5.6010     2.9050    -5.3820 ho         1 2V9       0.416000
     50 H17          7.4400     1.1390    -6.5800 h1         1 2V9       0.009200
     51 H18          6.3340     0.2190    -7.6100 h1         1 2V9       0.009200
     52 H19          6.8210     2.3510    -8.4270 ho         1 2V9       0.404000
@<TRIPOS>BOND
     1     1     2 2   
     2     2     3 1   
     3     2     6 1   
     4     3     4 2   
     5     4     5 1   
     6     4    34 1   
     7     5     6 ar  
     8     5    17 ar  
     9     6     7 ar  
    10     7     8 1   
    11     7    15 ar  
    12     8     9 ar  
    13     8    13 ar  
    14     9    10 ar  
    15     9    35 1   
    16    10    11 ar  
    17    10    36 1   
    18    11    12 ar  
    19    11    37 1   
    20    12    13 ar  
    21    12    38 1   
    22    13    14 1   
    23    14    15 1   
    24    14    28 1   
    25    15    16 ar  
    26    16    17 ar  
    27    16    24 1   
    28    17    18 1   
    29    18    19 ar  
    30    18    23 ar  
    31    19    20 ar  
    32    19    39 1   
    33    20    21 ar  
    34    20    40 1   
    35    21    22 ar  
    36    21    41 1   
    37    22    23 ar  
    38    22    42 1   
    39    23    24 1   
    40    24    25 1   
    41    25    26 1   
    42    25    27 1   
    43    25    30 1   
    44    26    43 1   
    45    26    44 1   
    46    26    45 1   
    47    27    28 1   
    48    28    29 1   
    49    28    46 1   
    50    29    30 1   
    51    29    47 1   
    52    29    48 1   
    53    30    31 1   
    54    30    32 1   
    55    31    49 1   
    56    32    33 1   
    57    32    50 1   
    58    32    51 1   
    59    33    52 1   
@<TRIPOS>SUBSTRUCTURE
     1 2V9         1 TEMP              0 ****  ****    0 ROOT
