@<TRIPOS>MOLECULE
molecule
   82    84     1     0     0
SMALL
bcc


@<TRIPOS>ATOM
      1 C10          0.0000     0.0000     0.0000 c3         1 2VC      -0.117400
      2 C15         -4.5190    -3.7570     1.7470 c2         1 2VC       0.702100
      3 C21          2.5550     2.4630    -2.7460 c3         1 2VC       0.116900
      4 C22          1.9540     2.5260    -4.1270 c2         1 2VC      -0.027200
      5 N02          4.0550     1.6310     5.4710 n3         1 2VC      -0.733600
      6 C03          4.3780     0.5890     4.4880 c3         1 2VC       0.143800
      7 C04          3.0790    -0.0220     3.9510 c3         1 2VC       0.118000
      8 N05          2.2250     1.0660     3.4480 n          1 2VC      -0.506800
      9 C06          1.6920     1.0100     2.2110 c          1 2VC       0.799100
     10 O07          0.9160     1.8720     1.8450 o          1 2VC      -0.650100
     11 N08          2.0170     0.0000     1.3810 ns         1 2VC      -0.601900
     12 C09          1.5300     0.0000     0.0000 c3         1 2VC       0.075700
     13 C11         -0.5100    -1.3080     0.6090 c3         1 2VC      -0.089400
     14 C12         -2.0400    -1.3080     0.6080 c3         1 2VC       0.115400
     15 O13         -2.5160    -2.5300     1.1770 os         1 2VC      -0.086100
     16 N14         -3.9280    -2.6310     1.2240 nu         1 2VC      -0.676700
     17 N16         -5.8900    -3.8550     1.7930 nz         1 2VC      -0.805600
     18 N17         -3.7800    -4.7300     2.2010 n2         1 2VC      -0.741100
     19 C18          2.0320     1.2310    -0.7100 c          1 2VC       0.641100
     20 O19          2.4060     2.1910    -0.0690 o          1 2VC      -0.553100
     21 N20          2.0660     1.2650    -2.0560 ns         1 2VC      -0.585900
     22 C23          1.2140     3.5510    -4.4730 ce         1 2VC      -0.347100
     23 S24          0.5120     3.6250    -6.0870 sy         1 2VC       1.214800
     24 O25          0.8030     4.9210    -6.5920 o          1 2VC      -0.586300
     25 O26          0.8990     2.4290    -6.7490 o          1 2VC      -0.586300
     26 C27         -1.2370     3.5460    -5.8990 ca         1 2VC       0.490900
     27 N28         -1.8300     2.3690    -5.8980 nb         1 2VC      -0.652500
     28 C29         -3.1420     2.2710    -5.7590 ca         1 2VC       0.439700
     29 C30         -3.8940     3.4260    -5.6140 ca         1 2VC      -0.336600
     30 C31         -3.2350     4.6460    -5.6200 ca         1 2VC       0.439700
     31 N32         -1.9190     4.6660    -5.7580 nb         1 2VC      -0.652500
     32 C33          4.0790     2.4010    -2.8550 c3         1 2VC      -0.088400
     33 C34          4.6940     2.4620    -1.4550 c3         1 2VC      -0.030100
     34 C35          6.1950     2.4020    -1.5630 ca         1 2VC      -0.087300
     35 C36          6.8420     1.1800    -1.5470 ca         1 2VC      -0.127000
     36 C37          8.2180     1.1250    -1.6520 ca         1 2VC      -0.124000
     37 C38          8.9500     2.2920    -1.7720 ca         1 2VC      -0.128000
     38 C39          8.3050     3.5140    -1.7880 ca         1 2VC      -0.124000
     39 C40          6.9270     3.5690    -1.6830 ca         1 2VC      -0.127000
     40 C41          1.9690     2.2140     4.3300 c3         1 2VC       0.118000
     41 C42          3.3120     2.7350     4.8530 c3         1 2VC       0.143800
     42 H1          -0.3610     0.8360     0.5870 hc         1 2VC       0.076200
     43 H2          -0.3610     0.0900    -1.0170 hc         1 2VC       0.076200
     44 H3           2.2680     3.3440    -2.1860 h1         1 2VC       0.092700
     45 H4           2.2470     1.6400    -4.6760 ha         1 2VC       0.157000
     46 H6           5.9150     2.5970     5.4070 h1         1 2VC       0.037033
     47 H7           5.0000     2.8400     6.9010 h1         1 2VC       0.037033
     48 H8           5.7940     1.2900     6.5920 h1         1 2VC       0.037033
     49 H12          3.3070    -0.7080     3.1450 h1         1 2VC       0.055450
     50 H13          2.5670    -0.5460     4.7490 h1         1 2VC       0.055450
     51 H14          2.5990    -0.7470     1.7060 hn         1 2VC       0.320500
     52 H15          1.8910    -0.8840    -0.5110 h1         1 2VC       0.062700
     53 H16          0.1420    -1.8940    -0.0290 hc         1 2VC       0.073700
     54 H17         -0.1600    -1.3830     1.6310 hc         1 2VC       0.073700
     55 H18         -2.4010    -0.4710     1.1930 h1         1 2VC       0.049700
     56 H19         -2.4000    -1.2190    -0.4100 h1         1 2VC       0.049700
     57 H20         -4.4950    -1.8920     0.8590 hn         1 2VC       0.463800
     58 H21         -6.2840    -2.9500     1.9610 hn         1 2VC       0.468133
     59 H22         -6.1550    -4.4760     2.5310 hn         1 2VC       0.468133
     60 H23         -4.2100    -5.5500     2.5820 hn         1 2VC       0.436400
     61 H24          1.7300     0.4850    -2.5860 hn         1 2VC       0.309500
     62 H25          1.0350     4.3530    -3.7670 h4         1 2VC       0.184000
     63 H27         -3.6230     1.3000    -5.7590 h4         1 2VC       0.038600
     64 H28         -4.9700     3.3780    -5.5000 ha         1 2VC       0.150000
     65 H29         -3.7890     5.5700    -5.5070 h4         1 2VC       0.038600
     66 H30          4.4330     3.2400    -3.4420 hc         1 2VC       0.055700
     67 H31          4.3690     1.4760    -3.3380 hc         1 2VC       0.055700
     68 H32          4.4040     3.3880    -0.9730 hc         1 2VC       0.060700
     69 H33          4.3410     1.6230    -0.8690 hc         1 2VC       0.060700
     70 H34          6.2690     0.2650    -1.4540 ha         1 2VC       0.126500
     71 H35          8.7250     0.1670    -1.6390 ha         1 2VC       0.130500
     72 H36         10.0290     2.2490    -1.8540 ha         1 2VC       0.132000
     73 H37          8.8780     4.4290    -1.8820 ha         1 2VC       0.130500
     74 H38          6.4210     4.5260    -1.6960 ha         1 2VC       0.126500
     75 H39          1.4680     2.9960     3.7730 h1         1 2VC       0.055450
     76 H40          1.3520     1.9010     5.1640 h1         1 2VC       0.055450
     77 H41          3.1350     3.5090     5.5900 h1         1 2VC       0.047700
     78 H42          3.8860     3.1390     4.0280 h1         1 2VC       0.047700
     79 H10          4.9360     1.0260     3.6690 h1         1 2VC       0.047700
     80 C01          5.2710     2.1220     6.1360 c3         1 2VC       0.152100
     81 H163        -6.2280    -4.2090     0.9200 hn         1 2VC       0.468133
     82 H11          4.9700    -0.1840     4.9640 h1         1 2VC       0.047700
@<TRIPOS>BOND
     1    36    37 ar  
     2    36    35 ar  
     3    37    38 ar  
     4    80     5 1   
     5    35    34 ar  
     6     6     5 1   
     7     6     7 1   
     8    38    39 ar  
     9     5    41 1   
    10    18     2 2   
    11    34    39 ar  
    12    34    33 1   
    13     7     8 1   
    14    41    40 1   
    15    33    32 1   
    16     2    17 1   
    17     2    16 1   
    18    10     9 2   
    19     8     9 1   
    20     8    40 1   
    21    28    27 ar  
    22    28    29 ar  
    23    32     3 1   
    24     9    11 1   
    25    27    26 ar  
    26    16    15 1   
    27    29    30 ar  
    28    11    12 1   
    29    22     4 2   
    30    22    23 1   
    31    21     3 1   
    32    21    19 1   
    33    12    19 1   
    34    12     1 1   
    35    26    23 1   
    36    26    31 ar  
    37    24    23 2   
    38     3     4 1   
    39    19    20 2   
    40    15    14 1   
    41    23    25 2   
    42    30    31 ar  
    43    14    13 1   
    44     1    13 1   
    45     1    42 1   
    46     1    43 1   
    47     3    44 1   
    48     4    45 1   
    49    80    46 1   
    50    80    47 1   
    51    80    48 1   
    52     6    79 1   
    53     6    82 1   
    54     7    49 1   
    55     7    50 1   
    56    11    51 1   
    57    12    52 1   
    58    13    53 1   
    59    13    54 1   
    60    14    55 1   
    61    14    56 1   
    62    16    57 1   
    63    17    58 1   
    64    17    59 1   
    65    18    60 1   
    66    21    61 1   
    67    22    62 1   
    68    28    63 1   
    69    29    64 1   
    70    30    65 1   
    71    32    66 1   
    72    32    67 1   
    73    33    68 1   
    74    33    69 1   
    75    35    70 1   
    76    36    71 1   
    77    37    72 1   
    78    38    73 1   
    79    39    74 1   
    80    40    75 1   
    81    40    76 1   
    82    41    77 1   
    83    41    78 1   
    84    81    17 1   
@<TRIPOS>SUBSTRUCTURE
     1 2VC         1 TEMP              0 ****  ****    0 ROOT
