@<TRIPOS>MOLECULE
2VC
   81    83     1     0     0
SMALL
bcc


@<TRIPOS>ATOM
      1 C10        -0.6170    1.7920    1.0600 c3        1 2VC     -0.050700
      2 C15        -5.5170   -0.3350    0.0010 c2        1 2VC      0.685100
      3 C21         2.8530    2.1890   -2.4620 c3        1 2VC      0.030900
      4 C22         3.6590    1.1490   -3.2140 c2        1 2VC      0.167700
      5 N02         5.4210   -0.7960    0.7590 n4        1 2VC     -0.743400
      6 C03         4.1020   -1.4220    0.9520 c3        1 2VC      0.091800
      7 C04         3.5560   -1.2570    2.3880 c3        1 2VC      0.064000
      8 N05         3.3710    0.0830    2.8740 n         1 2VC     -0.482800
      9 C06         2.7120    1.0200    1.9650 c         1 2VC      0.690100
     10 O07         3.3340    2.0780    1.6930 o         1 2VC     -0.668100
     11 N08         1.5420    0.5800    1.3490 n         1 2VC     -0.336500
     12 C09         0.7240    1.4020    0.5540 ce        1 2VC     -0.309400
     13 C11        -1.5070    0.5850    1.3160 c3        1 2VC     -0.092400
     14 C12        -2.9670    0.9890    1.3390 c3        1 2VC      0.136400
     15 O13        -3.6950   -0.2610    1.5230 os        1 2VC     -0.240100
     16 N14        -5.0230   -0.1490    1.3900 nh        1 2VC     -0.513700
     17 N16        -6.9100   -0.0430   -0.1280 nh        1 2VC     -0.930800
     18 N17        -4.7460   -0.7520   -0.9670 n2        1 2VC     -0.855100
     19 C18         1.1030    1.8180   -0.7490 c         1 2VC      0.564800
     20 O19         0.2560    2.1850   -1.6310 o         1 2VC     -0.791100
     21 N20         2.4710    1.7140   -1.1430 n         1 2VC     -0.551900
     22 C23         3.4840   -0.1410   -3.1480 c1        1 2VC     -1.519900
     23 S24         3.3380   -1.5440   -2.9930 s6        1 2VC      2.389400
     24 O25         3.2410   -2.3960   -4.0870 o         1 2VC     -0.669200
     25 O26         4.0270   -2.0800   -1.8650 o         1 2VC     -0.669200
     26 C27         1.4120   -1.6670   -2.3850 cc        1 2VC     -0.136400
     27 N28         0.6270   -0.5440   -2.4390 na        1 2VC     -0.440800
     28 C29        -0.6630   -0.5870   -1.9970 cc        1 2VC      0.126000
     29 C30        -1.1920   -1.8060   -1.5490 cd        1 2VC     -0.312600
     30 C31        -0.3320   -2.9260   -1.5460 cd        1 2VC      0.505500
     31 N32         0.9560   -2.8550   -1.9470 nc        1 2VC     -0.556300
     32 C33         3.6390    3.5140   -2.4370 c3        1 2VC     -0.087400
     33 C34         2.7820    4.6770   -1.9640 c3        1 2VC     -0.047100
     34 C35         3.5440    5.6010   -1.0800 ca        1 2VC     -0.077300
     35 C36         3.9710    6.8480   -1.5480 ca        1 2VC     -0.129500
     36 C37         4.6750    7.7120   -0.7100 ca        1 2VC     -0.134000
     37 C38         4.9560    7.3380    0.6030 ca        1 2VC     -0.140000
     38 C39         4.5300    6.0960    1.0760 ca        1 2VC     -0.134000
     39 C40         3.8280    5.2300    0.2420 ca        1 2VC     -0.129500
     40 C41         4.4330    0.6440    3.6630 c3        1 2VC      0.069300
     41 C42         5.6860    0.0560   -0.4280 cx        1 2VC      0.120300
     42 H1         -0.5270    2.3820    2.0130 hc        1 2VC      0.040200
     43 H2         -1.1020    2.4590    0.2960 hc        1 2VC      0.040200
     44 H3          4.8300    0.1950   -1.1430 hx        1 2VC      0.147200
     45 H4          1.9110    2.3740   -3.0730 h1        1 2VC      0.099700
     46 H6          5.9390   -2.1350   -0.9300 hx        1 2VC      0.147200
     47 H7          5.8410   -0.5040    1.6360 hn        1 2VC      0.450800
     48 H8          7.4010   -1.3910   -0.0340 hx        1 2VC      0.147200
     49 H11         4.1920   -2.5190    0.7020 hx        1 2VC      0.129700
     50 H12         2.5500   -1.7740    2.3750 h1        1 2VC      0.069200
     51 H13         4.2180   -1.8230    3.1040 h1        1 2VC      0.069200
     52 H14         1.0050   -0.0650    1.8930 hn        1 2VC      0.289500
     53 H15        -0.6860   -3.9150   -1.2010 h4        1 2VC      0.046800
     54 H16        -1.3530   -0.1790    0.5080 hc        1 2VC      0.037700
     55 H17        -1.2410    0.0980    2.2900 hc        1 2VC      0.037700
     56 H18        -3.2690    1.4720    0.3740 h1        1 2VC      0.044700
     57 H19        -3.1980    1.6730    2.1950 h1        1 2VC      0.044700
     58 H20        -5.4080   -0.9240    1.9360 hn        1 2VC      0.389800
     59 H21        -7.3110    0.4730    0.6240 hn        1 2VC      0.395300
     60 H22        -7.1630    0.3310   -1.0170 hn        1 2VC      0.395300
     61 H23        -5.1620   -0.7700   -1.8740 hn        1 2VC      0.388400
     62 H24         3.1060    2.0150   -0.4320 hn        1 2VC      0.285500
     63 H25         4.4520    1.5890   -3.8530 ha        1 2VC      0.083000
     64 H27         1.0300    0.3430   -2.7250 hn        1 2VC      0.527800
     65 H28        -1.2240    0.3760   -1.9750 h4        1 2VC      0.230000
     66 H29        -2.2320   -1.8620   -1.1940 ha        1 2VC      0.201000
     67 H30         4.0140    3.7280   -3.4710 hc        1 2VC      0.038200
     68 H31         4.5380    3.4030   -1.7750 hc        1 2VC      0.038200
     69 H32         2.3930    5.2340   -2.8580 hc        1 2VC      0.066200
     70 H33         1.8800    4.2980   -1.4070 hc        1 2VC      0.066200
     71 H34         3.4860    4.2510    0.6230 ha        1 2VC      0.145500
     72 H35         3.7470    7.1510   -2.5820 ha        1 2VC      0.145500
     73 H36         5.0050    8.6910   -1.0860 ha        1 2VC      0.126500
     74 H37         5.5080    8.0210    1.2640 ha        1 2VC      0.124000
     75 H38         4.7430    5.8010    2.1140 ha        1 2VC      0.126500
     76 H39         5.3560    0.8910    3.0670 h1        1 2VC      0.034033
     77 H40         4.0650    1.6010    4.1200 h1        1 2VC      0.034033
     78 H41         4.7090   -0.0750    4.4780 h1        1 2VC      0.034033
     79 H42         6.2500    0.9960   -0.2440 hx        1 2VC      0.147200
     80 H10         3.3870   -0.9740    0.1960 hx        1 2VC      0.129700
     81 C01         6.3290   -1.2860   -0.3070 cx        1 2VC      0.120300
@<TRIPOS>BOND
     1    1   12 1   
     2    1   13 1   
     3    1   42 1   
     4    1   43 1   
     5    2   16 1   
     6    2   17 1   
     7    2   18 2   
     8    3    4 1   
     9    3   21 1   
    10    3   32 1   
    11    3   45 1   
    12    4   22 2   
    13    4   63 1   
    14    5    6 1   
    15    5   41 1   
    16    5   47 1   
    17    5   81 1   
    18    6    7 1   
    19    6   49 1   
    20    6   80 1   
    21    7    8 1   
    22    7   50 1   
    23    7   51 1   
    24    8    9 1   
    25    8   40 1   
    26    9   10 2   
    27    9   11 1   
    28   11   12 2   
    29   11   52 1   
    30   12   19 1   
    31   13   14 1   
    32   13   54 1   
    33   13   55 1   
    34   14   15 1   
    35   14   56 1   
    36   14   57 1   
    37   15   16 1   
    38   16   58 1   
    39   17   59 1   
    40   17   60 1   
    41   18   61 1   
    42   19   20 2   
    43   19   21 1   
    44   21   62 1   
    45   22   23 2   
    46   23   24 1   
    47   23   25 1   
    48   23   26 2   
    49   26   27 1   
    50   26   31 1   
    51   27   28 1   
    52   27   64 1   
    53   28   29 2   
    54   28   65 1   
    55   29   30 1   
    56   29   66 1   
    57   30   31 2   
    58   30   53 1   
    59   32   33 1   
    60   32   67 1   
    61   32   68 1   
    62   33   34 1   
    63   33   69 1   
    64   33   70 1   
    65   34   35 ar  
    66   34   39 ar  
    67   35   36 ar  
    68   35   72 1   
    69   36   37 ar  
    70   36   73 1   
    71   37   38 ar  
    72   37   74 1   
    73   38   39 ar  
    74   38   75 1   
    75   39   71 1   
    76   40   76 1   
    77   40   77 1   
    78   40   78 1   
    79   41   44 1   
    80   41   79 1   
    81   41   81 1   
    82   46   81 1   
    83   48   81 1   
@<TRIPOS>SUBSTRUCTURE
     1 2VC         1 TEMP              0 ****  ****    0 ROOT
