@<TRIPOS>MOLECULE
2VD
   53    56     1     0     0
SMALL
bcc


@<TRIPOS>ATOM
      1 CAM          0.0000     0.0000     0.0000 c3         1 2VD       0.070800
      2 CAL          1.5330     0.0000     0.0000 c3         1 2VD      -0.016400
      3 CAK          2.0400     0.0000     1.4460 c3         1 2VD      -0.146700
      4 CBD          3.5260    -0.2480     1.4570 c          1 2VD       0.988600
      5 OBF          4.0200    -1.3830     0.9390 o          1 2VD      -0.904300
      6 OBE          4.2720     0.5750     1.9320 o          1 2VD      -0.904300
      7 CAJ          1.7430     1.3580     2.0900 c3         1 2VD       0.057800
      8 CAH          0.2910     1.6980     1.8530 cc         1 2VD      -0.183300
      9 CAI         -0.4790     1.0910     0.9240 cd         1 2VD      -0.169400
     10 CAE         -1.7960     1.6890     1.0050 ca         1 2VD      -0.081800
     11 CAF         -2.9830     1.4670     0.3000 ca         1 2VD      -0.042000
     12 CAA         -4.0660     2.2370     0.6490 ca         1 2VD       0.022100
     13 Br          -5.7020     1.9860    -0.2650 br         1 2VD      -0.228100
     14 CAB         -3.9960     3.1930     1.6500 ca         1 2VD      -0.117000
     15 CAC         -2.8350     3.4330     2.3640 ca         1 2VD      -0.087000
     16 CAD         -1.7200     2.6660     2.0310 ca         1 2VD      -0.214200
     17 NAG         -0.4460     2.6420     2.5200 na         1 2VD       0.463600
     18 CAO          0.0600     3.4970     3.5970 c3         1 2VD      -0.134700
     19 CAP         -0.1540     2.8130     4.9230 c          1 2VD       0.552100
     20 OAQ         -0.6760     1.7200     4.9640 o          1 2VD      -0.629100
     21 N            0.2360     3.4170     6.0630 ns         1 2VD      -0.139900
     22 CA           0.0290     2.7530     7.3520 c3         1 2VD      -0.095300
     23 C            1.1780     1.8170     7.6250 c          1 2VD       0.968600
     24 OXT          1.2020     1.0960     8.7570 o          1 2VD      -0.878300
     25 O            2.0780     1.7160     6.8250 o          1 2VD      -0.878300
     26 CB          -0.0480     3.8040     8.4620 c3         1 2VD       0.023900
     27 CG          -1.2680     4.6640     8.2560 ca         1 2VD      -0.059300
     28 CD1         -2.4720     4.3040     8.8310 ca         1 2VD      -0.103000
     29 CE1         -3.5920     5.0920     8.6420 ca         1 2VD      -0.110000
     30 CZ          -3.5070     6.2400     7.8760 ca         1 2VD      -0.132000
     31 CE2         -2.3040     6.6000     7.3010 ca         1 2VD      -0.110000
     32 CD2         -1.1820     5.8150     7.4960 ca         1 2VD      -0.103000
     33 H1          -0.3630     0.1880    -1.0030 hc         1 2VD      -0.000800
     34 H2          -0.3630    -0.9580     0.3510 hc         1 2VD      -0.000800
     35 H3           1.8940    -0.8860    -0.5080 hc         1 2VD       0.017700
     36 H4           1.8940     0.8860    -0.5080 hc         1 2VD       0.017700
     37 H5           1.5350    -0.7800     2.0030 hc         1 2VD       0.037700
     38 H7           1.9340     1.3040     3.1550 hc         1 2VD       0.043700
     39 H8           2.3720     2.1180     1.6410 hc         1 2VD       0.043700
     40 H9          -3.1310     0.5340    -0.2320 ha         1 2VD       0.115000
     41 H10         -4.8820     3.7720     1.8830 ha         1 2VD       0.096000
     42 H11         -2.7940     4.1830     3.1440 ha         1 2VD       0.104000
     43 H12          1.1180     3.6760     3.4490 h1         1 2VD       0.041200
     44 H13         -0.4710     4.4410     3.5880 h1         1 2VD       0.041200
     45 H14          0.7070     4.3000     6.0260 hn         1 2VD       0.150500
     46 H15         -0.8960     2.1900     7.3230 h1         1 2VD       0.058700
     47 H17         -0.1120     3.3100     9.4230 hc         1 2VD       0.033700
     48 H18          0.8400     4.4250     8.4330 hc         1 2VD       0.033700
     49 H19         -2.5380     3.4040     9.4310 ha         1 2VD       0.109500
     50 H20         -4.5360     4.8100     9.0930 ha         1 2VD       0.089500
     51 H21         -4.3850     6.8570     7.7260 ha         1 2VD       0.087000
     52 H22         -2.2370     7.5010     6.7030 ha         1 2VD       0.089500
     53 H23         -0.2390     6.0970     7.0450 ha         1 2VD       0.109500
@<TRIPOS>BOND
     1     1     2 1   
     2     1     9 1   
     3     1    33 1   
     4     1    34 1   
     5     2     3 1   
     6     2    35 1   
     7     2    36 1   
     8     3     4 1   
     9     3     7 1   
    10     3    37 1   
    11     4     5 1   
    12     4     6 1   
    13     7     8 1   
    14     7    38 1   
    15     7    39 1   
    16     8     9 2   
    17     8    17 1   
    18     9    10 1   
    19    10    11 ar  
    20    10    16 ar  
    21    11    12 ar  
    22    11    40 1   
    23    12    13 1   
    24    12    14 ar  
    25    14    15 ar  
    26    14    41 1   
    27    15    16 ar  
    28    15    42 1   
    29    16    17 1   
    30    17    18 1   
    31    18    19 1   
    32    18    43 1   
    33    18    44 1   
    34    19    20 2   
    35    19    21 1   
    36    21    22 1   
    37    21    45 1   
    38    22    23 1   
    39    22    26 1   
    40    22    46 1   
    41    23    24 1   
    42    23    25 1   
    43    26    27 1   
    44    26    47 1   
    45    26    48 1   
    46    27    28 ar  
    47    27    32 ar  
    48    28    29 ar  
    49    28    49 1   
    50    29    30 ar  
    51    29    50 1   
    52    30    31 ar  
    53    30    51 1   
    54    31    32 ar  
    55    31    52 1   
    56    32    53 1   
@<TRIPOS>SUBSTRUCTURE
     1 2VD         1 TEMP              0 ****  ****    0 ROOT
