@<TRIPOS>MOLECULE
molecule
   53    56     1     0     0
SMALL
bcc


@<TRIPOS>ATOM
      1 CAM          0.0000     0.0000     0.0000 c3         1 2VD      -0.003200
      2 CAL          1.5330     0.0000     0.0000 c3         1 2VD      -0.063400
      3 CAK          2.0400     0.0000     1.4460 c3         1 2VD      -0.161700
      4 CBD          3.5260    -0.2480     1.4570 c          1 2VD       0.899600
      5 OBF          4.0200    -1.3830     0.9390 o          1 2VD      -0.853800
      6 OBE          4.2720     0.5750     1.9320 o          1 2VD      -0.853800
      7 CAJ          1.7430     1.3580     2.0900 c3         1 2VD      -0.011200
      8 CAH          0.2910     1.6980     1.8530 cc         1 2VD       0.004700
      9 CAI         -0.4790     1.0910     0.9240 cd         1 2VD      -0.174400
     10 CAE         -1.7960     1.6890     1.0050 ca         1 2VD      -0.083800
     11 CAF         -2.9830     1.4670     0.3000 ca         1 2VD      -0.066000
     12 CAA         -4.0660     2.2370     0.6490 ca         1 2VD      -0.051900
     13 Br          -5.7020     1.9860    -0.2650 br         1 2VD      -0.172100
     14 CAB         -3.9960     3.1930     1.6500 ca         1 2VD      -0.124000
     15 CAC         -2.8350     3.4330     2.3640 ca         1 2VD      -0.131000
     16 CAD         -1.7200     2.6660     2.0310 ca         1 2VD      -0.025200
     17 NAG         -0.4460     2.6420     2.5200 na         1 2VD      -0.035400
     18 CAO          0.0600     3.4970     3.5970 c3         1 2VD      -0.033700
     19 CAP         -0.1540     2.8130     4.9230 c          1 2VD       0.641100
     20 OAQ         -0.6760     1.7200     4.9640 o          1 2VD      -0.581100
     21 N            0.2360     3.4170     6.0630 ns         1 2VD      -0.552900
     22 CA           0.0290     2.7530     7.3520 c3         1 2VD       0.013700
     23 C            1.1780     1.8170     7.6250 c          1 2VD       0.880600
     24 OXT          1.2020     1.0960     8.7570 o          1 2VD      -0.829800
     25 O            2.0780     1.7160     6.8250 o          1 2VD      -0.829800
     26 CB          -0.0480     3.8040     8.4620 c3         1 2VD      -0.040100
     27 CG          -1.2680     4.6640     8.2560 ca         1 2VD      -0.051300
     28 CD1         -2.4720     4.3040     8.8310 ca         1 2VD      -0.128000
     29 CE1         -3.5920     5.0920     8.6420 ca         1 2VD      -0.135000
     30 CZ          -3.5070     6.2400     7.8760 ca         1 2VD      -0.156000
     31 CE2         -2.3040     6.6000     7.3010 ca         1 2VD      -0.135000
     32 CD2         -1.1820     5.8150     7.4960 ca         1 2VD      -0.128000
     33 H1          -0.3630     0.1880    -1.0030 hc         1 2VD       0.028700
     34 H2          -0.3630    -0.9580     0.3510 hc         1 2VD       0.028700
     35 H3           1.8940    -0.8860    -0.5080 hc         1 2VD       0.043700
     36 H4           1.8940     0.8860    -0.5080 hc         1 2VD       0.043700
     37 H5           1.5350    -0.7800     2.0030 hc         1 2VD       0.060700
     38 H7           1.9340     1.3040     3.1550 hc         1 2VD       0.076200
     39 H8           2.3720     2.1180     1.6410 hc         1 2VD       0.076200
     40 H9          -3.1310     0.5340    -0.2320 ha         1 2VD       0.140000
     41 H10         -4.8820     3.7720     1.8830 ha         1 2VD       0.118000
     42 H11         -2.7940     4.1830     3.1440 ha         1 2VD       0.130000
     43 H12          1.1180     3.6760     3.4490 h1         1 2VD       0.068700
     44 H13         -0.4710     4.4410     3.5880 h1         1 2VD       0.068700
     45 H14          0.7070     4.3000     6.0260 hn         1 2VD       0.290500
     46 H15         -0.8960     2.1900     7.3230 h1         1 2VD       0.077700
     47 H17         -0.1120     3.3100     9.4230 hc         1 2VD       0.062700
     48 H18          0.8400     4.4250     8.4330 hc         1 2VD       0.062700
     49 H19         -2.5380     3.4040     9.4310 ha         1 2VD       0.131500
     50 H20         -4.5360     4.8100     9.0930 ha         1 2VD       0.112000
     51 H21         -4.3850     6.8570     7.7260 ha         1 2VD       0.108000
     52 H22         -2.2370     7.5010     6.7030 ha         1 2VD       0.112000
     53 H23         -0.2390     6.0970     7.0450 ha         1 2VD       0.131500
@<TRIPOS>BOND
     1    30    29 ar  
     2    30    31 ar  
     3    29    28 ar  
     4    31    32 ar  
     5    20    19 2   
     6    28    27 ar  
     7    18    19 1   
     8    18    17 1   
     9    32    27 ar  
    10    19    21 1   
    11    15    14 ar  
    12    15    16 ar  
    13    27    26 1   
    14    17    16 1   
    15    17     8 1   
    16    14    12 ar  
    17    16    10 ar  
    18    21    22 1   
    19     8     7 1   
    20     8     9 2   
    21     7     3 1   
    22    22    26 1   
    23    22    23 1   
    24    12    11 ar  
    25    12    13 1   
    26    10     9 1   
    27    10    11 ar  
    28     9     1 1   
    29     3     4 1   
    30     3     2 1   
    31     6     4 1   
    32     4     5 1   
    33    23    25 1   
    34    23    24 1   
    35     1     2 1   
    36     1    33 1   
    37     1    34 1   
    38     2    35 1   
    39     2    36 1   
    40     3    37 1   
    41     7    38 1   
    42     7    39 1   
    43    11    40 1   
    44    14    41 1   
    45    15    42 1   
    46    18    43 1   
    47    18    44 1   
    48    21    45 1   
    49    22    46 1   
    50    26    47 1   
    51    26    48 1   
    52    28    49 1   
    53    29    50 1   
    54    30    51 1   
    55    31    52 1   
    56    32    53 1   
@<TRIPOS>SUBSTRUCTURE
     1 2VD         1 TEMP              0 ****  ****    0 ROOT
