@<TRIPOS>MOLECULE
molecule
   40    42     1     0     0
SMALL
bcc


@<TRIPOS>ATOM
      1 OAX          0.0000     0.0000     0.0000 o          1 2VE      -0.852800
      2 CAW          1.2090     0.0000     0.0000 c          1 2VE       0.885600
      3 OAY          1.8790     0.0000     1.1620 o          1 2VE      -0.852800
      4 CAV          1.9620    -0.0060    -1.3050 c3         1 2VE       0.001000
      5 NAU          1.0110    -0.0120    -2.4180 ns         1 2VE      -0.553900
      6 C            1.4600    -0.0170    -3.6890 c          1 2VE       0.619100
      7 O            2.6530    -0.0190    -3.9100 o          1 2VE      -0.613100
      8 CA           0.4810    -0.0230    -4.8350 c3         1 2VE      -0.032700
      9 N            1.2140    -0.0290    -6.1040 na         1 2VE      -0.035400
     10 CAH          1.6130     1.0880    -6.7880 cc         1 2VE      -0.006300
     11 CAJ          1.3820     2.5240    -6.3780 c3         1 2VE      -0.005200
     12 CAK          2.3330     3.4200    -7.1780 c3         1 2VE      -0.163700
     13 CAO          1.9600     4.8650    -6.9660 c          1 2VE       0.897600
     14 OAQ          1.0300     5.1490    -6.2500 o          1 2VE      -0.853800
     15 OAP          2.6610     5.8350    -7.5740 o          1 2VE      -0.853800
     16 CAL          2.2250     3.0770    -8.6670 c3         1 2VE      -0.062400
     17 CAM          2.8400     1.6960    -8.9150 c3         1 2VE      -0.002200
     18 CAI          2.2610     0.7260    -7.9150 cd         1 2VE      -0.169400
     19 CAB          2.2790    -0.7220    -7.9510 ca         1 2VE      -0.074800
     20 CAA          1.6070    -1.1500    -6.7780 ca         1 2VE      -0.000200
     21 CAF          1.4530    -2.5070    -6.5040 ca         1 2VE      -0.131000
     22 CAE          1.9860    -3.3960    -7.4220 ca         1 2VE      -0.138000
     23 CAD          2.6450    -2.9730    -8.5650 ca         1 2VE      -0.071900
     24 Br           3.3370    -4.2690    -9.7560 br         1 2VE      -0.172100
     25 CAC          2.8030    -1.6420    -8.8650 ca         1 2VE      -0.058000
     26 H2           2.5850    -0.8910    -1.3580 h1         1 2VE       0.047700
     27 H3           2.5850     0.8780    -1.3670 h1         1 2VE       0.047700
     28 H4           0.0270    -0.0230    -2.2360 hn         1 2VE       0.327500
     29 H5          -0.1420     0.8610    -4.7820 h1         1 2VE       0.072200
     30 H6          -0.1410    -0.9080    -4.7730 h1         1 2VE       0.072200
     31 H7           0.3570     2.8010    -6.5910 hc         1 2VE       0.067200
     32 H8           1.5820     2.6350    -5.3200 hc         1 2VE       0.067200
     33 H9           3.3500     3.2530    -6.8440 hc         1 2VE       0.055700
     34 H11          2.7600     3.8190    -9.2480 hc         1 2VE       0.045700
     35 H12          1.1820     3.0650    -8.9590 hc         1 2VE       0.045700
     36 H13          3.9150     1.7490    -8.7900 hc         1 2VE       0.029700
     37 H14          2.6010     1.3670    -9.9200 hc         1 2VE       0.029700
     38 H15          0.9450    -3.1150    -5.7650 ha         1 2VE       0.137000
     39 H16          1.9160    -4.4690    -7.2900 ha         1 2VE       0.119000
     40 H17          3.3460    -1.5260    -9.7950 ha         1 2VE       0.137000
@<TRIPOS>BOND
     1     7     6 2   
     2     8     6 1   
     3     8     9 1   
     4     6     5 1   
     5    21    22 ar  
     6    21    20 ar  
     7     9    20 1   
     8     9    10 1   
     9    22    23 ar  
    10    20    19 ar  
    11     5     4 1   
    12    10    11 1   
    13    10    18 2   
    14    11    12 1   
    15     4     2 1   
    16    23    25 ar  
    17    23    24 1   
    18    19    18 1   
    19    19    25 ar  
    20    18    17 1   
    21    12    13 1   
    22    12    16 1   
    23    14    13 1   
    24    13    15 1   
    25     2     1 1   
    26     2     3 1   
    27    17    16 1   
    28     4    26 1   
    29     4    27 1   
    30     5    28 1   
    31     8    29 1   
    32     8    30 1   
    33    11    31 1   
    34    11    32 1   
    35    12    33 1   
    36    16    34 1   
    37    16    35 1   
    38    17    36 1   
    39    17    37 1   
    40    21    38 1   
    41    22    39 1   
    42    25    40 1   
@<TRIPOS>SUBSTRUCTURE
     1 2VE         1 TEMP              0 ****  ****    0 ROOT
