@<TRIPOS>MOLECULE
2VF
   36    38     1     0     0
SMALL
bcc


@<TRIPOS>ATOM
      1 O2           0.0000     0.0000     0.0000 o          1 2VF      -0.364100
      2 C13          1.2130     0.0000     0.0000 c          1 2VF       0.261100
      3 N1           1.8880     0.0000     1.1670 nz         1 2VF       0.193600
      4 C12          1.9660    -0.0060    -1.3060 c3         1 2VF      -0.083700
      5 N            1.0140    -0.0110    -2.4180 na         1 2VF       0.386600
      6 C3           0.4990     1.1150    -3.0260 ca         1 2VF      -0.231200
      7 C2           0.6830     2.4780    -2.8200 ca         1 2VF      -0.114000
      8 C1           0.0150     3.3890    -3.6070 ca         1 2VF      -0.079000
      9 C11          0.5080    -1.1320    -3.0130 cc         1 2VF      -0.245300
     10 C10          0.8210    -2.5670    -2.6520 c3         1 2VF       0.080800
     11 C8          -0.2560    -3.4690    -3.2640 c3         1 2VF      -0.151700
     12 C9           0.1580    -4.9110    -3.1250 c          1 2VF       0.980600
     13 O1          -0.6360    -5.8870    -3.5930 o          1 2VF      -0.885800
     14 O            1.2060    -5.1890    -2.5910 o          1 2VF      -0.885800
     15 C7          -0.4270    -3.1290    -4.7470 c3         1 2VF      -0.011400
     16 C6          -1.0860    -1.7490    -4.8780 c3         1 2VF       0.053800
     17 C5          -0.3380    -0.7790    -3.9990 cd         1 2VF      -0.085400
     18 C4          -0.3730     0.6800    -4.0410 ca         1 2VF      -0.057800
     19 C14         -1.0430     1.6160    -4.8300 ca         1 2VF      -0.028000
     20 C           -0.8460     2.9610    -4.6090 ca         1 2VF      -0.057600
     21 Cl          -1.6800     4.1280    -5.5880 cl         1 2VF      -0.021400
     22 H1           1.2540    -0.1810     1.9190 hn         1 2VF       0.242800
     23 H2           2.5920    -0.7110     1.1450 hn         1 2VF       0.242800
     24 H3           2.5890    -0.8910    -1.3590 h1         1 2VF       0.067700
     25 H4           2.5890     0.8780    -1.3670 h1         1 2VF       0.067700
     26 H5           1.3530     2.8230    -2.0420 ha         1 2VF       0.079000
     27 H6           0.1620     4.4500    -3.4430 ha         1 2VF       0.112000
     28 H7           1.7910    -2.8380    -3.0510 hc         1 2VF       0.017200
     29 H8           0.8200    -2.6790    -1.5750 hc         1 2VF       0.017200
     30 H9          -1.1940    -3.3070    -2.7480 hc         1 2VF       0.028700
     31 H11         -1.0570    -3.8740    -5.2170 hc         1 2VF       0.034200
     32 H12          0.5430    -3.1120    -5.2270 hc         1 2VF       0.034200
     33 H13         -1.0360    -1.4190    -5.9080 hc         1 2VF       0.018200
     34 H14         -2.1190    -1.8080    -4.5570 hc         1 2VF       0.018200
     35 H15         -1.7160     1.2860    -5.6130 ha         1 2VF       0.124000
     36 H131         2.3110     0.8960     1.3080 hn         1 2VF       0.242800
@<TRIPOS>BOND
     1     1     2 2   
     2     2     3 1   
     3     2     4 1   
     4     3    22 1   
     5     3    23 1   
     6     3    36 1   
     7     4     5 1   
     8     4    24 1   
     9     4    25 1   
    10     5     6 1   
    11     5     9 1   
    12     6     7 ar  
    13     6    18 ar  
    14     7     8 ar  
    15     7    26 1   
    16     8    20 ar  
    17     8    27 1   
    18     9    10 1   
    19     9    17 2   
    20    10    11 1   
    21    10    28 1   
    22    10    29 1   
    23    11    12 1   
    24    11    15 1   
    25    11    30 1   
    26    12    13 1   
    27    12    14 1   
    28    15    16 1   
    29    15    31 1   
    30    15    32 1   
    31    16    17 1   
    32    16    33 1   
    33    16    34 1   
    34    17    18 1   
    35    18    19 ar  
    36    19    20 ar  
    37    19    35 1   
    38    20    21 1   
@<TRIPOS>SUBSTRUCTURE
     1 2VF         1 TEMP              0 ****  ****    0 ROOT
