@<TRIPOS>MOLECULE
molecule
   36    38     1     0     0
SMALL
bcc


@<TRIPOS>ATOM
      1 O2           0.0000     0.0000     0.0000 o          1 2VF      -0.359100
      2 C13          1.2130     0.0000     0.0000 c          1 2VF       0.431100
      3 N1           1.8880     0.0000     1.1670 nz         1 2VF      -0.686400
      4 C12          1.9660    -0.0060    -1.3060 c3         1 2VF      -0.003700
      5 N            1.0140    -0.0110    -2.4180 na         1 2VF      -0.074400
      6 C3           0.4990     1.1150    -3.0260 ca         1 2VF      -0.060200
      7 C2           0.6830     2.4780    -2.8200 ca         1 2VF      -0.151000
      8 C1           0.0150     3.3890    -3.6070 ca         1 2VF      -0.102000
      9 C11          0.5080    -1.1320    -3.0130 cc         1 2VF      -0.060300
     10 C10          0.8210    -2.5670    -2.6520 c3         1 2VF      -0.000200
     11 C8          -0.2560    -3.4690    -3.2640 c3         1 2VF      -0.166700
     12 C9           0.1580    -4.9110    -3.1250 c          1 2VF       0.892600
     13 O1          -0.6360    -5.8870    -3.5930 o          1 2VF      -0.835300
     14 O            1.2060    -5.1890    -2.5910 o          1 2VF      -0.835300
     15 C7          -0.4270    -3.1290    -4.7470 c3         1 2VF      -0.061400
     16 C6          -1.0860    -1.7490    -4.8780 c3         1 2VF      -0.018200
     17 C5          -0.3380    -0.7790    -3.9990 cd         1 2VF      -0.099400
     18 C4          -0.3730     0.6800    -4.0410 ca         1 2VF      -0.060800
     19 C14         -1.0430     1.6160    -4.8300 ca         1 2VF      -0.063000
     20 C           -0.8460     2.9610    -4.6090 ca         1 2VF       0.007400
     21 Cl          -1.6800     4.1280    -5.5880 cl         1 2VF      -0.103400
     22 H1           1.2540    -0.1810     1.9190 hn         1 2VF       0.471133
     23 H2           2.5920    -0.7110     1.1450 hn         1 2VF       0.471133
     24 H3           2.5890    -0.8910    -1.3590 h1         1 2VF       0.102700
     25 H4           2.5890     0.8780    -1.3670 h1         1 2VF       0.102700
     26 H5           1.3530     2.8230    -2.0420 ha         1 2VF       0.104000
     27 H6           0.1620     4.4500    -3.4430 ha         1 2VF       0.143000
     28 H7           1.7910    -2.8380    -3.0510 hc         1 2VF       0.051200
     29 H8           0.8200    -2.6790    -1.5750 hc         1 2VF       0.051200
     30 H9          -1.1940    -3.3070    -2.7480 hc         1 2VF       0.051700
     31 H11         -1.0570    -3.8740    -5.2170 hc         1 2VF       0.063700
     32 H12          0.5430    -3.1120    -5.2270 hc         1 2VF       0.063700
     33 H13         -1.0360    -1.4190    -5.9080 hc         1 2VF       0.050700
     34 H14         -2.1190    -1.8080    -4.5570 hc         1 2VF       0.050700
     35 H15         -1.7160     1.2860    -5.6130 ha         1 2VF       0.158000
     36 H131         2.3110     0.8960     1.3080 hn         1 2VF       0.471133
@<TRIPOS>BOND
     1     1     2 2   
     2     4     2 1   
     3     4     5 1   
     4     2     3 1   
     5     7     6 ar  
     6     7     8 ar  
     7     5     6 1   
     8     5     9 1   
     9     6    18 ar  
    10     8    20 ar  
    11    10     9 1   
    12    10    11 1   
    13     9    17 2   
    14    20    21 1   
    15    20    19 ar  
    16    18    17 1   
    17    18    19 ar  
    18    11    12 1   
    19    11    15 1   
    20    17    16 1   
    21    13    12 1   
    22    12    14 1   
    23    16    15 1   
    24     3    22 1   
    25     3    23 1   
    26     4    24 1   
    27     4    25 1   
    28     7    26 1   
    29     8    27 1   
    30    10    28 1   
    31    10    29 1   
    32    11    30 1   
    33    15    31 1   
    34    15    32 1   
    35    16    33 1   
    36    16    34 1   
    37    19    35 1   
    38    36     3 1   
@<TRIPOS>SUBSTRUCTURE
     1 2VF         1 TEMP              0 ****  ****    0 ROOT
