@<TRIPOS>MOLECULE
2VG
   28    30     1     0     0
SMALL
bcc


@<TRIPOS>ATOM
      1 CL          0.0960   -0.3980   -0.1830 cl        1 2VG     -0.140400
      2 C4          1.7890   -0.1680   -0.0950 ca        1 2VG     -0.014600
      3 C3          2.4210   -0.2380    1.1430 ca        1 2VG     -0.084000
      4 C2          3.8010   -0.0480    1.1940 ca        1 2VG     -0.064800
      5 C5          2.4940    0.0850   -1.2850 ca        1 2VG     -0.132000
      6 C6          3.8680    0.2780   -1.2690 ca        1 2VG     -0.142000
      7 C1          4.5310    0.2130   -0.0360 ca        1 2VG     -0.057200
      8 N           5.8800    0.3670    0.2840 na        1 2VG     -0.191400
      9 C7          6.0280    0.2050    1.6690 cc        1 2VG     -0.012300
     10 C8          4.7780   -0.0470    2.2530 cd        1 2VG     -0.154400
     11 C12         4.6110   -0.2480    3.7000 c3        1 2VG     -0.005200
     12 C11         5.9480   -0.5530    4.3610 c3        1 2VG     -0.061400
     13 C9          7.3090    0.2710    2.4080 c3        1 2VG     -0.021200
     14 C10         7.0540    0.3810    3.9040 c3        1 2VG     -0.183700
     15 C13         8.3540    0.0750    4.6970 c         1 2VG      0.915600
     16 O1          8.3320    0.2920    5.9410 o         1 2VG     -0.840800
     17 O2          9.3580   -0.3590    4.0650 o         1 2VG     -0.840800
     18 H1          1.8570   -0.4380    2.0650 ha        1 2VG      0.144000
     19 H2          1.9500    0.1300   -2.2400 ha        1 2VG      0.130000
     20 H3          4.4170    0.4740   -2.1980 ha        1 2VG      0.124000
     21 H4          6.6090    0.5270   -0.3560 hn        1 2VG      0.293700
     22 H5          4.1690    0.6800    4.1550 hc        1 2VG      0.030700
     23 H6          3.8900   -1.0870    3.8930 hc        1 2VG      0.030700
     24 H7          6.2420   -1.6100    4.1310 hc        1 2VG      0.049200
     25 H8          5.8480   -0.4630    5.4750 hc        1 2VG      0.049200
     26 H9          7.9280    1.1430    2.0710 hc        1 2VG      0.069200
     27 H10         7.9170   -0.6570    2.2120 hc        1 2VG      0.069200
     28 H11         6.7570    1.4360    4.1480 hc        1 2VG      0.039700
@<TRIPOS>BOND
     1    1    2 1   
     2    2    3 ar  
     3    2    5 ar  
     4    3    4 ar  
     5    3   18 1   
     6    4    7 ar  
     7    4   10 1   
     8    5    6 ar  
     9    5   19 1   
    10    6    7 ar  
    11    6   20 1   
    12    7    8 1   
    13    8    9 1   
    14    8   21 1   
    15    9   10 2   
    16    9   13 1   
    17   10   11 1   
    18   11   12 1   
    19   11   22 1   
    20   11   23 1   
    21   12   14 1   
    22   12   24 1   
    23   12   25 1   
    24   13   14 1   
    25   13   26 1   
    26   13   27 1   
    27   14   15 1   
    28   14   28 1   
    29   15   16 1   
    30   15   17 1   
@<TRIPOS>SUBSTRUCTURE
     1 2VG         1 TEMP              0 ****  ****    0 ROOT
