@<TRIPOS>MOLECULE
molecule
   28    30     1     0     0
SMALL
bcc


@<TRIPOS>ATOM
      1 Cl           0.0000     0.0000     0.0000 cl         1 2VG      -0.146400
      2 C4           1.7360     0.0000     0.0000 ca         1 2VG      -0.008600
      3 C3           2.4210     0.0000     1.1960 ca         1 2VG      -0.075000
      4 C2           3.8180    -0.0010     1.1930 ca         1 2VG      -0.080800
      5 C5           2.4270    -0.0050    -1.2050 ca         1 2VG      -0.125000
      6 C6           3.8050    -0.0050    -1.2240 ca         1 2VG      -0.138000
      7 C1           4.5160     0.0000    -0.0290 ca         1 2VG      -0.050200
      8 N            5.8620     0.0020     0.2700 na         1 2VG      -0.179400
      9 C7           6.0380    -0.0000     1.6250 cc         1 2VG      -0.027300
     10 C8           4.8380    -0.0030     2.2360 cd         1 2VG      -0.157400
     11 C12          4.6370    -0.0090     3.7290 c3         1 2VG      -0.010200
     12 C11          5.9550    -0.4210     4.3950 c3         1 2VG      -0.062400
     13 C9           7.3560    -0.0010     2.3660 c3         1 2VG       0.001800
     14 C10          7.0980     0.4180     3.8180 c3         1 2VG      -0.165700
     15 C13          8.3450     0.1960     4.6330 c          1 2VG       0.892600
     16 O1           8.3230    -0.5560     5.5780 o          1 2VG      -0.845800
     17 O2           9.4810     0.8330     4.3080 o          1 2VG      -0.845800
     18 H1           1.8810     0.1010     2.1290 ha         1 2VG       0.140000
     19 H2           1.8770    -0.0100    -2.1390 ha         1 2VG       0.129000
     20 H3           4.3330    -0.0090    -2.1700 ha         1 2VG       0.121000
     21 H4           6.6000     0.0030    -0.4060 hn         1 2VG       0.290700
     22 H5           4.3560     0.9830     4.0620 hc         1 2VG       0.033700
     23 H6           3.8610    -0.7190     3.9880 hc         1 2VG       0.033700
     24 H7           6.1440    -1.4700     4.2010 hc         1 2VG       0.052200
     25 H8           5.8870    -0.2520     5.4630 hc         1 2VG       0.052200
     26 H9           8.0340     0.7040     1.9000 hc         1 2VG       0.061700
     27 H10          7.7840    -0.9960     2.3450 hc         1 2VG       0.061700
     28 H11          6.8240     1.4650     3.8460 hc         1 2VG       0.047700
@<TRIPOS>BOND
     1    16    15 1
     2    17    15 1
     3    15    14 1
     4    12    14 1
     5    12    11 1
     6    14    13 1
     7    11    10 1
     8    13     9 1
     9    10     9 2
    10    10     4 1
    11     9     8 1
    12     4     3 ar
    13     4     7 ar
    14     3     2 ar
    15     8     7 1
    16     7     6 ar
    17     2     1 1
    18     2     5 ar
    19     6     5 ar
    20     3    18 1
    21     5    19 1
    22     6    20 1
    23     8    21 1
    24    11    22 1
    25    11    23 1
    26    12    24 1
    27    12    25 1
    28    13    26 1
    29    13    27 1
    30    14    28 1
@<TRIPOS>SUBSTRUCTURE
     1 2VG         1 TEMP              0 ****  ****    0 ROOT
