@<TRIPOS>MOLECULE
2VH
   48    51     1     0     0
SMALL
bcc


@<TRIPOS>ATOM
      1 F2           0.0000     0.0000     0.0000 f          1 2VH      -0.087900
      2 C            1.3510     0.0000     0.0000 ca         1 2VH       0.147900
      3 C5           2.0450     0.0000     1.2000 ca         1 2VH       0.101900
      4 F            1.3700    -0.0010     2.3720 f          1 2VH      -0.090900
      5 C4           3.4290     0.0000     1.2000 ca         1 2VH      -0.041000
      6 C3           4.1190     0.0010     0.0030 ca         1 2VH      -0.192300
      7 C2           3.4280     0.0020    -1.1970 ca         1 2VH       0.068900
      8 F1           4.1040     0.0030    -2.3660 f          1 2VH      -0.130900
      9 C1           2.0440    -0.0050    -1.1980 ca         1 2VH      -0.120000
     10 C6           5.6260     0.0020     0.0020 c3         1 2VH       0.254400
     11 C10          6.1380    -1.4360    -0.1220 c3         1 2VH      -0.118500
     12 N            5.6990    -2.0030    -1.4050 nz         1 2VH       0.063400
     13 C9           7.6680    -1.4330    -0.0610 c3         1 2VH      -0.036400
     14 C8           8.1140    -0.7690     1.2460 c3         1 2VH       0.103500
     15 C7           7.5270     0.6430     1.3180 c3         1 2VH       0.199400
     16 O            6.1030     0.5700     1.2240 os         1 2VH      -0.365600
     17 N1           9.5810    -0.6920     1.2810 n3         1 2VH      -0.542600
     18 C14         10.1820    -2.0450     1.3180 c3         1 2VH       0.152500
     19 C13         11.4480    -1.9090     2.1320 cc         1 2VH       0.321600
     20 N2          12.5890    -2.4820     2.4150 nd         1 2VH      -0.483800
     21 N3          13.2720    -1.6720     3.3320 na         1 2VH       0.251900
     22 S           14.7610    -1.9820     3.9850 s6         1 2VH       0.961000
     23 O2          14.8780    -3.3980     3.9350 o          1 2VH      -0.549300
     24 C16         15.9300    -1.2050     2.8350 c3         1 2VH       0.025700
     25 O1          14.7500    -1.2910     5.2270 o          1 2VH      -0.549300
     26 C15         12.5000    -0.5950     3.5890 cd         1 2VH      -0.082300
     27 C12         11.3670    -0.7150     2.8610 cc         1 2VH      -0.360600
     28 C11         10.0480    -0.0550     2.5330 c3         1 2VH       0.265100
     29 H1           3.9710     0.0000     2.1380 ha         1 2VH       0.154000
     30 H2           1.5030    -0.0040    -2.1360 ha         1 2VH       0.156000
     31 H3           5.9910     0.5870    -0.8330 h1         1 2VH       0.041700
     32 H4           5.7460    -2.0300     0.6950 hx         1 2VH       0.102700
     33 H5           4.7130    -2.1730    -1.3750 hn         1 2VH       0.232133
     34 H6           5.9040    -1.3590    -2.1430 hn         1 2VH       0.232133
     35 H8           8.0620    -0.8760    -0.9030 hc         1 2VH       0.045700
     36 H9           8.0320    -2.4530    -0.0910 hc         1 2VH       0.045700
     37 H10          7.7560    -1.3510     2.0860 h1         1 2VH       0.034700
     38 H11          7.9120     1.2360     0.4980 h1         1 2VH       0.043200
     39 H12          7.8020     1.0990     2.2610 h1         1 2VH       0.043200
     40 H14          9.5040    -2.7140     1.8340 h1         1 2VH       0.025700
     41 H15         10.4450    -2.3370     0.3090 h1         1 2VH       0.025700
     42 H16         16.9430    -1.4190     3.1520 h1         1 2VH       0.070033
     43 H17         15.7720    -0.1340     2.8300 h1         1 2VH       0.070033
     44 H18         15.7720    -1.5990     1.8390 h1         1 2VH       0.070033
     45 H19         12.7450     0.2210     4.2590 h4         1 2VH       0.163000
     46 H20          9.3350    -0.2300     3.3290 h1         1 2VH       0.021700
     47 H21         10.1920     1.0080     2.3780 h1         1 2VH       0.021700
     48 HN3          6.2010    -2.8500    -1.5840 hn         1 2VH       0.232133
@<TRIPOS>BOND
     1     1     2 1   
     2     2     3 ar  
     3     2     9 ar  
     4     3     4 1   
     5     3     5 ar  
     6     5     6 ar  
     7     5    29 1   
     8     6     7 ar  
     9     6    10 1   
    10     7     8 1   
    11     7     9 ar  
    12     9    30 1   
    13    10    11 1   
    14    10    16 1   
    15    10    31 1   
    16    11    12 1   
    17    11    13 1   
    18    11    32 1   
    19    12    33 1   
    20    12    34 1   
    21    12    48 1   
    22    13    14 1   
    23    13    35 1   
    24    13    36 1   
    25    14    15 1   
    26    14    17 1   
    27    14    37 1   
    28    15    16 1   
    29    15    38 1   
    30    15    39 1   
    31    17    18 1   
    32    17    28 1   
    33    18    19 1   
    34    18    40 1   
    35    18    41 1   
    36    19    20 2   
    37    19    27 1   
    38    20    21 1   
    39    21    22 1   
    40    21    26 1   
    41    22    23 2   
    42    22    24 1   
    43    22    25 2   
    44    24    42 1   
    45    24    43 1   
    46    24    44 1   
    47    26    27 2   
    48    26    45 1   
    49    27    28 1   
    50    28    46 1   
    51    28    47 1   
@<TRIPOS>SUBSTRUCTURE
     1 2VH         1 TEMP              0 ****  ****    0 ROOT
