@<TRIPOS>MOLECULE
molecule
   48    51     1     0     0
SMALL
bcc


@<TRIPOS>ATOM
      1 F2           0.0000     0.0000     0.0000 f          1 2VH      -0.088900
      2 C            1.3510     0.0000     0.0000 ca         1 2VH       0.157900
      3 C5           2.0450     0.0000     1.2000 ca         1 2VH       0.109900
      4 F            1.3700    -0.0010     2.3720 f          1 2VH      -0.093900
      5 C4           3.4290     0.0000     1.2000 ca         1 2VH      -0.082000
      6 C3           4.1190     0.0010     0.0030 ca         1 2VH      -0.173300
      7 C2           3.4280     0.0020    -1.1970 ca         1 2VH       0.100900
      8 F1           4.1040     0.0030    -2.3660 f          1 2VH      -0.154900
      9 C1           2.0440    -0.0050    -1.1980 ca         1 2VH      -0.168000
     10 C6           5.6260     0.0020     0.0020 c3         1 2VH       0.195400
     11 C10          6.1380    -1.4360    -0.1220 c3         1 2VH       0.066500
     12 N            5.6990    -2.0030    -1.4050 nz         1 2VH      -0.805600
     13 C9           7.6680    -1.4330    -0.0610 c3         1 2VH      -0.105400
     14 C8           8.1140    -0.7690     1.2460 c3         1 2VH       0.136500
     15 C7           7.5270     0.6430     1.3180 c3         1 2VH       0.127400
     16 O            6.1030     0.5700     1.2240 os         1 2VH      -0.377600
     17 N1           9.5810    -0.6920     1.2810 n3         1 2VH      -0.693600
     18 C14         10.1820    -2.0450     1.3180 c3         1 2VH       0.130500
     19 C13         11.4480    -1.9090     2.1320 cc         1 2VH       0.324600
     20 N2          12.5890    -2.4820     2.4150 nd         1 2VH      -0.420800
     21 N3          13.2720    -1.6720     3.3320 na         1 2VH      -0.075100
     22 S           14.7610    -1.9820     3.9850 s6         1 2VH       1.308000
     23 O2          14.8780    -3.3980     3.9350 o          1 2VH      -0.581300
     24 C16         15.9300    -1.2050     2.8350 c3         1 2VH      -0.231300
     25 O1          14.7500    -1.2910     5.2270 o          1 2VH      -0.581300
     26 C15         12.5000    -0.5950     3.5890 cd         1 2VH      -0.037300
     27 C12         11.3670    -0.7150     2.8610 cc         1 2VH      -0.322600
     28 C11         10.0480    -0.0550     2.5330 c3         1 2VH       0.225100
     29 H1           3.9710     0.0000     2.1380 ha         1 2VH       0.188000
     30 H2           1.5030    -0.0040    -2.1360 ha         1 2VH       0.187000
     31 H3           5.9910     0.5870    -0.8330 h1         1 2VH       0.074700
     32 H4           5.7460    -2.0300     0.6950 hx         1 2VH       0.125700
     33 H5           4.7130    -2.1730    -1.3750 hn         1 2VH       0.459133
     34 H6           5.9040    -1.3590    -2.1430 hn         1 2VH       0.459133
     35 H8           8.0620    -0.8760    -0.9030 hc         1 2VH       0.076200
     36 H9           8.0320    -2.4530    -0.0910 hc         1 2VH       0.076200
     37 H10          7.7560    -1.3510     2.0860 h1         1 2VH       0.053700
     38 H11          7.9120     1.2360     0.4980 h1         1 2VH       0.086700
     39 H12          7.8020     1.0990     2.2610 h1         1 2VH       0.086700
     40 H14          9.5040    -2.7140     1.8340 h1         1 2VH       0.066200
     41 H15         10.4450    -2.3370     0.3090 h1         1 2VH       0.066200
     42 H16         16.9430    -1.4190     3.1520 h1         1 2VH       0.108033
     43 H17         15.7720    -0.1340     2.8300 h1         1 2VH       0.108033
     44 H18         15.7720    -1.5990     1.8390 h1         1 2VH       0.108033
     45 H19         12.7450     0.2210     4.2590 h4         1 2VH       0.202000
     46 H20          9.3350    -0.2300     3.3290 h1         1 2VH       0.059700
     47 H21         10.1920     1.0080     2.3780 h1         1 2VH       0.059700
     48 HN3          6.2010    -2.8500    -1.5840 hn         1 2VH       0.459133
@<TRIPOS>BOND
     1    12    11 1
     2    11    13 1
     3    11    10 1
     4    25    22 2
     5    13    14 1
     6    18    19 1
     7    18    17 1
     8    20    19 2
     9    20    21 1
    10     4     3 1
    11    19    27 1
    12     3     5 ar
    13     3     2 ar
    14     5     6 ar
    15     1     2 1
    16     2     9 ar
    17    14    17 1
    18    14    15 1
    19     6    10 1
    20     6     7 ar
    21    22    21 1
    22    22    23 2
    23    22    24 1
    24     9     7 ar
    25    10    16 1
    26    21    26 1
    27    17    28 1
    28     7     8 1
    29    27    26 2
    30    27    28 1
    31    16    15 1
    32     5    29 1
    33     9    30 1
    34    10    31 1
    35    11    32 1
    36    12    33 1
    37    12    34 1
    38    13    35 1
    39    13    36 1
    40    14    37 1
    41    15    38 1
    42    15    39 1
    43    18    40 1
    44    18    41 1
    45    24    42 1
    46    24    43 1
    47    24    44 1
    48    26    45 1
    49    28    46 1
    50    28    47 1
    51    48    12 1
@<TRIPOS>SUBSTRUCTURE
     1 2VH         1 TEMP              0 ****  ****    0 ROOT
