@<TRIPOS>MOLECULE
2VJ
   59    62     1     0     0
SMALL
bcc


@<TRIPOS>ATOM
      1 C1           0.0000     0.0000     0.0000 c3         1 2VJ       0.009900
      2 C2           1.5300     0.0000     0.0000 c3         1 2VJ      -0.065700
      3 C3           2.0320     0.0000     1.4200 ca         1 2VJ       0.399600
      4 N6           2.9070     0.0380     3.9700 nb         1 2VJ      -0.547000
      5 C7           2.0750     0.9510     3.5140 ca         1 2VJ       0.611300
      6 C9           1.5980     2.0370     4.4450 c3         1 2VJ      -0.058000
      7 C11          0.8640     1.4070     5.6300 c3         1 2VJ      -0.037400
      8 C12          0.3810     2.5090     6.5750 c3         1 2VJ      -0.022400
      9 C13          1.5820     3.3060     7.0850 c3         1 2VJ      -0.026400
     10 C14          2.3160     3.9370     5.9000 c3         1 2VJ      -0.015400
     11 C15          2.8000     2.8350     4.9560 c3         1 2VJ      -0.127700
     12 C20          5.3240     4.8120     2.8650 c3         1 2VJ       0.111300
     13 C21          6.5080     5.5980     3.3680 ca         1 2VJ      -0.107300
     14 C22          6.3610     6.9320     3.6970 ca         1 2VJ      -0.078000
     15 C24          8.6790     7.0410     4.2910 ca         1 2VJ      -0.035600
     16 C30          4.6440    -1.5940     5.4500 cc         1 2VJ       0.245800
     17 C33          5.2690    -1.4320     7.5560 cc         1 2VJ      -0.396200
     18 C34          4.4070    -0.4020     7.2440 cd         1 2VJ       0.304200
     19 C4           2.9090    -0.9760     1.8510 ca         1 2VJ      -0.333600
     20 C5           3.3480    -0.9340     3.1760 ca         1 2VJ       0.563600
     21 N8           1.6420     0.9400     2.2690 nb         1 2VJ      -0.592000
     22 C17          3.5230     3.4550     3.7890 c          1 2VJ       0.579100
     23 O18          3.1180     3.2780     2.6600 o          1 2VJ      -0.649100
     24 N19          4.6210     4.2090     3.9990 ns         1 2VJ      -0.208900
     25 C23          7.4460     7.6540     4.1580 ca         1 2VJ      -0.096000
     26 C25          8.8250     5.7030     3.9670 ca         1 2VJ      -0.040600
     27 C26          7.7380     4.9820     3.5050 ca         1 2VJ      -0.069000
     28 Cl7         10.3690     4.9290     4.1400 cl         1 2VJ       0.002600
     29 Cl8         10.0420     7.9470     4.8710 cl         1 2VJ      -0.013400
     30 S29          4.4670    -2.1500     3.7870 ss         1 2VJ      -0.462600
     31 N31          5.4140    -2.1810     6.3940 na         1 2VJ       0.339100
     32 N35          4.0510    -0.5390     5.9690 nd         1 2VJ      -0.606000
     33 C36          5.8930    -1.6730     8.8060 c          1 2VJ       0.995200
     34 O37          5.6820    -0.9270     9.7450 o          1 2VJ      -0.883300
     35 O38          6.7190    -2.7300     8.9570 o          1 2VJ      -0.883300
     36 H1          -0.3610    -0.1910    -1.0030 hc         1 2VJ       0.002700
     37 H2          -0.3610     0.9650     0.3360 hc         1 2VJ       0.002700
     38 H3          -0.3610    -0.7730     0.6670 hc         1 2VJ       0.002700
     39 H4           1.8910     0.8840    -0.5110 hc         1 2VJ       0.017700
     40 H5           1.8910    -0.8840    -0.5110 hc         1 2VJ       0.017700
     41 H6           0.9240     2.7010     3.9180 hc         1 2VJ       0.047700
     42 H7           0.0120     0.8440     5.2680 hc         1 2VJ       0.036200
     43 H8           1.5390     0.7470     6.1620 hc         1 2VJ       0.036200
     44 H9          -0.1370     2.0610     7.4150 hc         1 2VJ       0.008200
     45 H10         -0.2910     3.1710     6.0420 hc         1 2VJ       0.008200
     46 H11          1.2380     4.0870     7.7530 hc         1 2VJ       0.019200
     47 H12          2.2550     2.6430     7.6140 hc         1 2VJ       0.019200
     48 H13          3.1680     4.5000     6.2630 hc         1 2VJ       0.009700
     49 H14          1.6410     4.5970     5.3680 hc         1 2VJ       0.009700
     50 H15          3.4700     2.1720     5.4910 hc         1 2VJ       0.089700
     51 H16          5.6670     4.0320     2.1960 h1         1 2VJ       0.027700
     52 H17          4.6510     5.4740     2.3330 h1         1 2VJ       0.027700
     53 H18          5.3960     7.4130     3.5930 ha         1 2VJ       0.112000
     54 H19          4.0730     0.3760     7.9200 h4         1 2VJ       0.009100
     55 H20          3.2490    -1.7540     1.1780 ha         1 2VJ       0.126000
     56 H21          4.9780     4.3240     4.9270 hn         1 2VJ       0.185500
     57 H22          7.3320     8.7000     4.4140 ha         1 2VJ       0.115000
     58 H23          7.8500     3.9350     3.2510 ha         1 2VJ       0.129000
     59 H24          5.9750    -3.0020     6.2800 hn         1 2VJ       0.132700
@<TRIPOS>BOND
     1     1     2 1   
     2     1    36 1   
     3     1    37 1   
     4     1    38 1   
     5     2     3 1   
     6     2    39 1   
     7     2    40 1   
     8     3    19 ar  
     9     3    21 ar  
    10     4     5 ar  
    11     4    20 ar  
    12     5     6 1   
    13     5    21 ar  
    14     6     7 1   
    15     6    11 1   
    16     6    41 1   
    17     7     8 1   
    18     7    42 1   
    19     7    43 1   
    20     8     9 1   
    21     8    44 1   
    22     8    45 1   
    23     9    10 1   
    24     9    46 1   
    25     9    47 1   
    26    10    11 1   
    27    10    48 1   
    28    10    49 1   
    29    11    22 1   
    30    11    50 1   
    31    12    13 1   
    32    12    24 1   
    33    12    51 1   
    34    12    52 1   
    35    13    14 ar  
    36    13    27 ar  
    37    14    25 ar  
    38    14    53 1   
    39    15    25 ar  
    40    15    26 ar  
    41    15    29 1   
    42    16    30 1   
    43    16    31 1   
    44    16    32 2   
    45    17    18 2   
    46    17    31 1   
    47    17    33 1   
    48    18    32 1   
    49    18    54 1   
    50    19    20 ar  
    51    19    55 1   
    52    20    30 1   
    53    22    23 2   
    54    22    24 1   
    55    24    56 1   
    56    25    57 1   
    57    26    27 ar  
    58    26    28 1   
    59    27    58 1   
    60    31    59 1   
    61    33    34 1   
    62    33    35 1   
@<TRIPOS>SUBSTRUCTURE
     1 2VJ         1 TEMP              0 ****  ****    0 ROOT
