@<TRIPOS>MOLECULE
molecule
   59    62     1     0     0
SMALL
bcc


@<TRIPOS>ATOM
      1 C1           0.0000     0.0000     0.0000 c3         1 2VJ      -0.084100
      2 C2           1.5300     0.0000     0.0000 c3         1 2VJ      -0.124700
      3 C3           2.0320     0.0000     1.4200 ca         1 2VJ       0.464600
      4 N6           2.9070     0.0380     3.9700 nb         1 2VJ      -0.669000
      5 C7           2.0750     0.9510     3.5140 ca         1 2VJ       0.701300
      6 C9           1.5980     2.0370     4.4450 c3         1 2VJ      -0.065000
      7 C11          0.8640     1.4070     5.6300 c3         1 2VJ      -0.080400
      8 C12          0.3810     2.5090     6.5750 c3         1 2VJ      -0.080400
      9 C13          1.5820     3.3060     7.0850 c3         1 2VJ      -0.080400
     10 C14          2.3160     3.9370     5.9000 c3         1 2VJ      -0.071400
     11 C15          2.8000     2.8350     4.9560 c3         1 2VJ      -0.139700
     12 C20          5.3240     4.8120     2.8650 c3         1 2VJ       0.161300
     13 C21          6.5080     5.5980     3.3680 ca         1 2VJ      -0.101300
     14 C22          6.3610     6.9320     3.6970 ca         1 2VJ      -0.108000
     15 C24          8.6790     7.0410     4.2910 ca         1 2VJ       0.032400
     16 C30          4.6440    -1.5940     5.4500 cc         1 2VJ       0.426800
     17 C33          5.2690    -1.4320     7.5560 cc         1 2VJ      -0.192200
     18 C34          4.4070    -0.4020     7.2440 cd         1 2VJ       0.286200
     19 C4           2.9090    -0.9760     1.8510 ca         1 2VJ      -0.382600
     20 C5           3.3480    -0.9340     3.1760 ca         1 2VJ       0.568600
     21 N8           1.6420     0.9400     2.2690 nb         1 2VJ      -0.727000
     22 C17          3.5230     3.4550     3.7890 c          1 2VJ       0.661100
     23 O18          3.1180     3.2780     2.6600 o          1 2VJ      -0.605100
     24 N19          4.6210     4.2090     3.9990 ns         1 2VJ      -0.589900
     25 C23          7.4460     7.6540     4.1580 ca         1 2VJ      -0.121000
     26 C25          8.8250     5.7030     3.9670 ca         1 2VJ       0.029400
     27 C26          7.7380     4.9820     3.5050 ca         1 2VJ      -0.095000
     28 Cl7         10.3690     4.9290     4.1400 cl         1 2VJ      -0.082400
     29 Cl8         10.0420     7.9470     4.8710 cl         1 2VJ      -0.094400
     30 S29          4.4670    -2.1500     3.7870 ss         1 2VJ      -0.315600
     31 N31          5.4140    -2.1810     6.3940 na         1 2VJ      -0.250900
     32 N35          4.0510    -0.5390     5.9690 nd         1 2VJ      -0.668000
     33 C36          5.8930    -1.6730     8.8060 c          1 2VJ       0.897200
     34 O37          5.6820    -0.9270     9.7450 o          1 2VJ      -0.832800
     35 O38          6.7190    -2.7300     8.9570 o          1 2VJ      -0.832800
     36 H1          -0.3610    -0.1910    -1.0030 hc         1 2VJ       0.036367
     37 H2          -0.3610     0.9650     0.3360 hc         1 2VJ       0.036367
     38 H3          -0.3610    -0.7730     0.6670 hc         1 2VJ       0.036367
     39 H4           1.8910     0.8840    -0.5110 hc         1 2VJ       0.050700
     40 H5           1.8910    -0.8840    -0.5110 hc         1 2VJ       0.050700
     41 H6           0.9240     2.7010     3.9180 hc         1 2VJ       0.074700
     42 H7           0.0120     0.8440     5.2680 hc         1 2VJ       0.065700
     43 H8           1.5390     0.7470     6.1620 hc         1 2VJ       0.065700
     44 H9          -0.1370     2.0610     7.4150 hc         1 2VJ       0.036200
     45 H10         -0.2910     3.1710     6.0420 hc         1 2VJ       0.036200
     46 H11          1.2380     4.0870     7.7530 hc         1 2VJ       0.047700
     47 H12          2.2550     2.6430     7.6140 hc         1 2VJ       0.047700
     48 H13          3.1680     4.5000     6.2630 hc         1 2VJ       0.038200
     49 H14          1.6410     4.5970     5.3680 hc         1 2VJ       0.038200
     50 H15          3.4700     2.1720     5.4910 hc         1 2VJ       0.118700
     51 H16          5.6670     4.0320     2.1960 h1         1 2VJ       0.058200
     52 H17          4.6510     5.4740     2.3330 h1         1 2VJ       0.058200
     53 H18          5.3960     7.4130     3.5930 ha         1 2VJ       0.143000
     54 H19          4.0730     0.3760     7.9200 h4         1 2VJ       0.044100
     55 H20          3.2490    -1.7540     1.1780 ha         1 2VJ       0.138000
     56 H21          4.9780     4.3240     4.9270 hn         1 2VJ       0.322500
     57 H22          7.3320     8.7000     4.4140 ha         1 2VJ       0.146000
     58 H23          7.8500     3.9350     3.2510 ha         1 2VJ       0.163000
     59 H24          5.9750    -3.0020     6.2800 hn         1 2VJ       0.312700
@<TRIPOS>BOND
     1    23    22 2   
     2    10     9 1   
     3    10    11 1   
     4     8     9 1   
     5     8     7 1   
     6     6     7 1   
     7     6    11 1   
     8     6     5 1   
     9    22    11 1   
    10    22    24 1   
    11    14    25 ar  
    12    14    13 ar  
    13    25    15 ar  
    14    21     5 ar  
    15    21     3 ar  
    16     1     2 1   
    17     2     3 1   
    18     5     4 ar  
    19    12    13 1   
    20    12    24 1   
    21    13    27 ar  
    22     3    19 ar  
    23    15    29 1   
    24    15    26 ar  
    25    27    26 ar  
    26    26    28 1   
    27     4    20 ar  
    28    19    20 ar  
    29    20    30 1   
    30    30    16 1   
    31    32    16 2   
    32    32    18 1   
    33    16    31 1   
    34    18    17 2   
    35    31    17 1   
    36    17    33 1   
    37    33    34 1   
    38    33    35 1   
    39     1    36 1   
    40     1    37 1   
    41     1    38 1   
    42     2    39 1   
    43     2    40 1   
    44     6    41 1   
    45     7    42 1   
    46     7    43 1   
    47     8    44 1   
    48     8    45 1   
    49     9    46 1   
    50     9    47 1   
    51    10    48 1   
    52    10    49 1   
    53    11    50 1   
    54    12    51 1   
    55    12    52 1   
    56    14    53 1   
    57    18    54 1   
    58    19    55 1   
    59    24    56 1   
    60    25    57 1   
    61    27    58 1   
    62    31    59 1   
@<TRIPOS>SUBSTRUCTURE
     1 2VJ         1 TEMP              0 ****  ****    0 ROOT
