@<TRIPOS>MOLECULE
2VK
   65    68     1     0     0
SMALL
bcc


@<TRIPOS>ATOM
      1 CAK          0.0000     0.0000     0.0000 ca         1 2VK      -0.181500
      2 CAI          1.3770     0.0000     0.0000 ca         1 2VK      -0.025000
      3 CAY          2.0740     0.0000     1.2120 ca         1 2VK      -0.024000
      4 CAC          3.5060     0.0010     1.2170 cg         1 2VK       0.239800
      5 NAA          4.6420     0.0210     1.2200 n1         1 2VK      -0.390800
      6 CAJ          1.3690    -0.0000     2.4190 ca         1 2VK      -0.025000
      7 CAL         -0.0090    -0.0010     2.4100 ca         1 2VK      -0.181500
      8 CAZ         -0.6970     0.0050     1.2020 ca         1 2VK       0.176100
      9 OAX         -2.0550     0.0050     1.1980 os         1 2VK      -0.300900
     10 CAP         -2.6990     0.0100    -0.0780 c3         1 2VK       0.202400
     11 CAO         -4.2160     0.0080     0.1170 c3         1 2VK      -0.045400
     12 CAU         -4.9060     0.0150    -1.2490 c3         1 2VK       0.159800
     13 NBD         -6.3620     0.0140    -1.0610 n3         1 2VK      -0.537600
     14 CAW         -7.0570     0.2570    -2.3330 c3         1 2VK       0.153300
     15 CAT         -8.5590     0.3930    -2.0770 c3         1 2VK      -0.042400
     16 CAV         -6.8130    -1.2400    -0.4430 c3         1 2VK       0.153300
     17 CAS         -8.3080    -1.1480    -0.1300 c3         1 2VK      -0.042400
     18 CBC         -9.0800    -0.8910    -1.4270 c3         1 2VK      -0.045700
     19 CBE        -10.5700    -0.7380    -1.1130 c3         1 2VK       0.244100
     20 CBB        -11.0830    -2.0120    -0.4370 c3         1 2VK      -0.090700
     21 CAQ        -10.9420    -3.2310    -1.3820 c3         1 2VK      -0.026400
     22 CAM        -11.9960    -4.2320    -0.8670 c3         1 2VK      -0.023400
     23 CAN        -13.0570    -3.4070    -0.1190 c3         1 2VK      -0.023400
     24 CAR        -12.6120    -1.9330    -0.2050 c3         1 2VK      -0.026400
     25 OAB        -11.2930    -0.5200    -2.3270 oh         1 2VK      -0.589800
     26 CBA        -10.7700     0.4370    -0.1900 ca         1 2VK      -0.126300
     27 CAG        -10.9880     1.6970    -0.7140 ca         1 2VK      -0.101000
     28 CAE        -11.1720     2.7750     0.1320 ca         1 2VK      -0.097500
     29 CAD        -11.1380     2.5920     1.5020 ca         1 2VK      -0.097000
     30 CAF        -10.9210     1.3310     2.0250 ca         1 2VK      -0.097500
     31 CAH        -10.7430     0.2520     1.1790 ca         1 2VK      -0.101000
     32 H1          -0.5410     0.0020    -0.9390 ha         1 2VK       0.124500
     33 H2           1.9200    -0.0040    -0.9380 ha         1 2VK       0.112000
     34 H3           1.9050    -0.0020     3.3600 ha         1 2VK       0.112000
     35 H4          -0.5560     0.0010     3.3450 ha         1 2VK       0.124500
     36 H5          -2.4050    -0.8730    -0.6340 h1         1 2VK       0.002700
     37 H6          -2.4050     0.8960    -0.6270 h1         1 2VK       0.002700
     38 H7          -4.5090    -0.8790     0.6650 hc         1 2VK       0.034700
     39 H8          -4.5090     0.8900     0.6730 hc         1 2VK       0.034700
     40 H9          -4.6130    -0.8670    -1.8060 h1         1 2VK       0.008200
     41 H10         -4.6140     0.9020    -1.7970 h1         1 2VK       0.008200
     42 H12         -6.6840     1.1710    -2.7770 h1         1 2VK       0.009700
     43 H13         -6.8810    -0.5750    -3.0040 h1         1 2VK       0.009700
     44 H14         -9.0720     0.5550    -3.0170 hc         1 2VK       0.033950
     45 H15         -8.7370     1.2310    -1.4130 hc         1 2VK       0.033950
     46 H16         -6.6390    -2.0620    -1.1270 h1         1 2VK       0.009700
     47 H17         -6.2630    -1.4050     0.4760 h1         1 2VK       0.009700
     48 H18         -8.6420    -2.0800     0.3100 hc         1 2VK       0.033950
     49 H19         -8.4830    -0.3330     0.5610 hc         1 2VK       0.033950
     50 H20         -8.9320    -1.7230    -2.1050 hc         1 2VK       0.042700
     51 H21        -10.5650    -2.1930     0.4970 hc         1 2VK       0.049700
     52 H22         -9.9480    -3.6550    -1.3050 hc         1 2VK       0.022200
     53 H23        -11.1610    -2.9440    -2.4030 hc         1 2VK       0.022200
     54 H24        -11.5330    -4.9400    -0.1890 hc         1 2VK       0.011700
     55 H25        -12.4520    -4.7510    -1.7010 hc         1 2VK       0.011700
     56 H26        -14.0230    -3.5310    -0.5940 hc         1 2VK       0.011700
     57 H27        -13.1040    -3.7190     0.9180 hc         1 2VK       0.011700
     58 H28        -13.0960    -1.4410    -1.0410 hc         1 2VK       0.022200
     59 H29        -12.8280    -1.4180     0.7230 hc         1 2VK       0.022200
     60 H30        -12.1030    -0.0760    -2.1340 ho         1 2VK       0.403000
     61 H31        -11.0150     1.8400    -1.7870 ha         1 2VK       0.119000
     62 H32        -11.3420     3.7630    -0.2780 ha         1 2VK       0.104000
     63 H33        -11.2790     3.4360     2.1650 ha         1 2VK       0.103000
     64 H34        -10.8970     1.1870     3.0980 ha         1 2VK       0.104000
     65 H35        -10.5730    -0.7360     1.5890 ha         1 2VK       0.119000
@<TRIPOS>BOND
     1     1     2 ar  
     2     1     8 ar  
     3     1    32 1   
     4     2     3 ar  
     5     2    33 1   
     6     3     4 1   
     7     3     6 ar  
     8     4     5 3   
     9     6     7 ar  
    10     6    34 1   
    11     7     8 ar  
    12     7    35 1   
    13     8     9 1   
    14     9    10 1   
    15    10    11 1   
    16    10    36 1   
    17    10    37 1   
    18    11    12 1   
    19    11    38 1   
    20    11    39 1   
    21    12    13 1   
    22    12    40 1   
    23    12    41 1   
    24    13    14 1   
    25    13    16 1   
    26    14    15 1   
    27    14    42 1   
    28    14    43 1   
    29    15    18 1   
    30    15    44 1   
    31    15    45 1   
    32    16    17 1   
    33    16    46 1   
    34    16    47 1   
    35    17    18 1   
    36    17    48 1   
    37    17    49 1   
    38    18    19 1   
    39    18    50 1   
    40    19    20 1   
    41    19    25 1   
    42    19    26 1   
    43    20    21 1   
    44    20    24 1   
    45    20    51 1   
    46    21    22 1   
    47    21    52 1   
    48    21    53 1   
    49    22    23 1   
    50    22    54 1   
    51    22    55 1   
    52    23    24 1   
    53    23    56 1   
    54    23    57 1   
    55    24    58 1   
    56    24    59 1   
    57    25    60 1   
    58    26    27 ar  
    59    26    31 ar  
    60    27    28 ar  
    61    27    61 1   
    62    28    29 ar  
    63    28    62 1   
    64    29    30 ar  
    65    29    63 1   
    66    30    31 ar  
    67    30    64 1   
    68    31    65 1   
@<TRIPOS>SUBSTRUCTURE
     1 2VK         1 TEMP              0 ****  ****    0 ROOT
