@<TRIPOS>MOLECULE
molecule
   65    68     1     0     0
SMALL
bcc


@<TRIPOS>ATOM
      1 CAK          0.0000     0.0000     0.0000 ca         1 2VK      -0.198000
      2 CAI          1.3770     0.0000     0.0000 ca         1 2VK      -0.051000
      3 CAY          2.0740     0.0000     1.2120 ca         1 2VK      -0.066000
      4 CAC          3.5060     0.0010     1.2170 cg         1 2VK       0.244800
      5 NAA          4.6420     0.0210     1.2200 n1         1 2VK      -0.371800
      6 CAJ          1.3690    -0.0000     2.4190 ca         1 2VK      -0.051000
      7 CAL         -0.0090    -0.0010     2.4100 ca         1 2VK      -0.198000
      8 CAZ         -0.6970     0.0050     1.2020 ca         1 2VK       0.168100
      9 OAX         -2.0550     0.0050     1.1980 os         1 2VK      -0.323900
     10 CAP         -2.6990     0.0100    -0.0780 c3         1 2VK       0.134400
     11 CAO         -4.2160     0.0080     0.1170 c3         1 2VK      -0.084400
     12 CAU         -4.9060     0.0150    -1.2490 c3         1 2VK       0.165800
     13 NBD         -6.3620     0.0140    -1.0610 n3         1 2VK      -0.726600
     14 CAW         -7.0570     0.2570    -2.3330 c3         1 2VK       0.163300
     15 CAT         -8.5590     0.3930    -2.0770 c3         1 2VK      -0.079400
     16 CAV         -6.8130    -1.2400    -0.4430 c3         1 2VK       0.163300
     17 CAS         -8.3080    -1.1480    -0.1300 c3         1 2VK      -0.079400
     18 CBC         -9.0800    -0.8910    -1.4270 c3         1 2VK      -0.052700
     19 CBE        -10.5700    -0.7380    -1.1130 c3         1 2VK       0.213100
     20 CBB        -11.0830    -2.0120    -0.4370 c3         1 2VK      -0.096700
     21 CAQ        -10.9420    -3.2310    -1.3820 c3         1 2VK      -0.077900
     22 CAM        -11.9960    -4.2320    -0.8670 c3         1 2VK      -0.083400
     23 CAN        -13.0570    -3.4070    -0.1190 c3         1 2VK      -0.083400
     24 CAR        -12.6120    -1.9330    -0.2050 c3         1 2VK      -0.077900
     25 OAB        -11.2930    -0.5200    -2.3270 oh         1 2VK      -0.601800
     26 CBA        -10.7700     0.4370    -0.1900 ca         1 2VK      -0.116300
     27 CAG        -10.9880     1.6970    -0.7140 ca         1 2VK      -0.122000
     28 CAE        -11.1720     2.7750     0.1320 ca         1 2VK      -0.127000
     29 CAD        -11.1380     2.5920     1.5020 ca         1 2VK      -0.124000
     30 CAF        -10.9210     1.3310     2.0250 ca         1 2VK      -0.127000
     31 CAH        -10.7430     0.2520     1.1790 ca         1 2VK      -0.122000
     32 H1          -0.5410     0.0020    -0.9390 ha         1 2VK       0.147000
     33 H2           1.9200    -0.0040    -0.9380 ha         1 2VK       0.144000
     34 H3           1.9050    -0.0020     3.3600 ha         1 2VK       0.144000
     35 H4          -0.5560     0.0010     3.3450 ha         1 2VK       0.147000
     36 H5          -2.4050    -0.8730    -0.6340 h1         1 2VK       0.037200
     37 H6          -2.4050     0.8960    -0.6270 h1         1 2VK       0.037200
     38 H7          -4.5090    -0.8790     0.6650 hc         1 2VK       0.065200
     39 H8          -4.5090     0.8900     0.6730 hc         1 2VK       0.065200
     40 H9          -4.6130    -0.8670    -1.8060 h1         1 2VK       0.033700
     41 H10         -4.6140     0.9020    -1.7970 h1         1 2VK       0.033700
     42 H12         -6.6840     1.1710    -2.7770 h1         1 2VK       0.034200
     43 H13         -6.8810    -0.5750    -3.0040 h1         1 2VK       0.034200
     44 H14         -9.0720     0.5550    -3.0170 hc         1 2VK       0.058200
     45 H15         -8.7370     1.2310    -1.4130 hc         1 2VK       0.058200
     46 H16         -6.6390    -2.0620    -1.1270 h1         1 2VK       0.034200
     47 H17         -6.2630    -1.4050     0.4760 h1         1 2VK       0.034200
     48 H18         -8.6420    -2.0800     0.3100 hc         1 2VK       0.058200
     49 H19         -8.4830    -0.3330     0.5610 hc         1 2VK       0.058200
     50 H20         -8.9320    -1.7230    -2.1050 hc         1 2VK       0.063700
     51 H21        -10.5650    -2.1930     0.4970 hc         1 2VK       0.062700
     52 H22         -9.9480    -3.6550    -1.3050 hc         1 2VK       0.048950
     53 H23        -11.1610    -2.9440    -2.4030 hc         1 2VK       0.048950
     54 H24        -11.5330    -4.9400    -0.1890 hc         1 2VK       0.041200
     55 H25        -12.4520    -4.7510    -1.7010 hc         1 2VK       0.041200
     56 H26        -14.0230    -3.5310    -0.5940 hc         1 2VK       0.041200
     57 H27        -13.1040    -3.7190     0.9180 hc         1 2VK       0.041200
     58 H28        -13.0960    -1.4410    -1.0410 hc         1 2VK       0.048950
     59 H29        -12.8280    -1.4180     0.7230 hc         1 2VK       0.048950
     60 H30        -12.1030    -0.0760    -2.1340 ho         1 2VK       0.409000
     61 H31        -11.0150     1.8400    -1.7870 ha         1 2VK       0.138000
     62 H32        -11.3420     3.7630    -0.2780 ha         1 2VK       0.131000
     63 H33        -11.2790     3.4360     2.1650 ha         1 2VK       0.130000
     64 H34        -10.8970     1.1870     3.0980 ha         1 2VK       0.131000
     65 H35        -10.5730    -0.7360     1.5890 ha         1 2VK       0.138000
@<TRIPOS>BOND
     1    30    29 ar  
     2    30    31 ar  
     3    29    28 ar  
     4    31    26 ar  
     5    25    19 1   
     6    28    27 ar  
     7    26    27 ar  
     8    26    19 1   
     9    17    16 1   
    10    17    18 1   
    11    19    18 1   
    12    19    20 1   
    13    16    13 1   
    14    21    20 1   
    15    21    22 1   
    16    18    15 1   
    17    11    10 1   
    18    11    12 1   
    19    13    12 1   
    20    13    14 1   
    21    20    24 1   
    22    15    14 1   
    23    10     9 1   
    24    22    23 1   
    25     9     8 1   
    26    24    23 1   
    27     8     7 ar  
    28     8     1 ar  
    29     7     6 ar  
    30     1     2 ar  
    31     6     3 ar  
    32     2     3 ar  
    33     3     4 1   
    34     4     5 3   
    35     1    32 1   
    36     2    33 1   
    37     6    34 1   
    38     7    35 1   
    39    10    36 1   
    40    10    37 1   
    41    11    38 1   
    42    11    39 1   
    43    12    40 1   
    44    12    41 1   
    45    14    42 1   
    46    14    43 1   
    47    15    44 1   
    48    15    45 1   
    49    16    46 1   
    50    16    47 1   
    51    17    48 1   
    52    17    49 1   
    53    18    50 1   
    54    20    51 1   
    55    21    52 1   
    56    21    53 1   
    57    22    54 1   
    58    22    55 1   
    59    23    56 1   
    60    23    57 1   
    61    24    58 1   
    62    24    59 1   
    63    25    60 1   
    64    27    61 1   
    65    28    62 1   
    66    29    63 1   
    67    30    64 1   
    68    31    65 1   
@<TRIPOS>SUBSTRUCTURE
     1 2VK         1 TEMP              0 ****  ****    0 ROOT
