@<TRIPOS>MOLECULE
molecule
   79    84     1     0     0
SMALL
bcc


@<TRIPOS>ATOM
      1 C1           0.0000     0.0000     0.0000 c3         1 2VL      -0.039800
      2 C2           1.5070     0.0000     0.0000 ca         1 2VL      -0.079300
      3 C3           2.2060     0.0000     1.2040 ca         1 2VL      -0.017800
      4 C4           3.6000    -0.0060     1.1970 ca         1 2VL      -0.129000
      5 C5           4.2850    -0.0120    -0.0010 ca         1 2VL      -0.122000
      6 C6           3.5910    -0.0110    -1.1980 ca         1 2VL      -0.118000
      7 C7           2.2020    -0.0050    -1.2000 ca         1 2VL       0.051600
      8 N8           1.5050    -0.0120    -2.4130 ns         1 2VL      -0.471100
      9 C9           2.0000    -0.6830    -3.4710 c          1 2VL       0.709700
     10 O10          3.0890    -1.2230    -3.3950 o          1 2VL      -0.591100
     11 C11          1.2280    -0.7640    -4.7140 cc         1 2VL      -0.129700
     12 C12          1.6190    -1.4120    -5.8460 cd         1 2VL      -0.066000
     13 C13          0.7060    -1.3390    -6.8820 cd         1 2VL      -0.130300
     14 C14         -0.4110    -0.6380    -6.5800 cc         1 2VL      -0.034400
     15 S15         -0.3550    -0.0510    -4.9790 ss         1 2VL      -0.104800
     16 C16         -1.5640    -0.4110    -7.5410 c3         1 2VL      -0.004100
     17 C17         -1.0880    -0.7210    -8.9620 c3         1 2VL      -0.080400
     18 C18         -0.4030    -2.0910    -8.9720 c3         1 2VL      -0.081400
     19 C19          0.9360    -1.9890    -8.2400 c3         1 2VL      -0.013100
     20 C20          1.4680     0.0070     2.4910 cd         1 2VL       0.126400
     21 C21          1.6840     1.0180     3.3770 cc         1 2VL      -0.100400
     22 N22          1.0240     1.0540     4.5670 n          1 2VL      -0.306000
     23 C23          0.1460     0.0720     4.8640 c          1 2VL       0.551200
     24 O24         -0.4600     0.0790     5.9230 o          1 2VL      -0.646500
     25 C25         -0.0650    -1.0040     3.8880 cc         1 2VL       0.592200
     26 N26          0.6000    -0.9800     2.7540 nd         1 2VL      -0.614300
     27 N27         -0.9620    -2.0290     4.1560 nu         1 2VL      -0.702600
     28 C28         -1.0740    -3.1070     3.2730 ca         1 2VL       0.160600
     29 C29          0.0450    -3.5700     2.5930 ca         1 2VL      -0.153000
     30 C30         -0.0700    -4.6350     1.7220 ca         1 2VL      -0.083000
     31 C31         -1.2970    -5.2400     1.5250 ca         1 2VL      -0.098300
     32 C32         -2.4140    -4.7820     2.2000 ca         1 2VL      -0.083000
     33 C33         -2.3060    -3.7200     3.0770 ca         1 2VL      -0.153000
     34 C34         -1.4190    -6.3990     0.5700 c3         1 2VL       0.155800
     35 C36         -0.9660    -7.6590     1.2510 c          1 2VL       0.707500
     36 O37         -1.3140    -7.8580     2.3960 o          1 2VL      -0.641500
     37 N38         -0.1960    -8.5700     0.6490 n          1 2VL      -0.483800
     38 C39          0.3060    -8.4100    -0.7140 c3         1 2VL       0.111000
     39 C40         -0.5140    -7.3510    -1.4530 c3         1 2VL       0.141800
     40 N41         -0.5890    -6.1420    -0.6150 n3         1 2VL      -0.721600
     41 C42         -1.1060    -5.0020    -1.3830 c3         1 2VL       0.148100
     42 C43          0.1620    -9.7830     1.3880 c3         1 2VL       0.102300
     43 C44          1.2640     2.1460     5.5130 c3         1 2VL       0.090300
     44 H1          -0.3610    -1.0050    -0.1840 hc         1 2VL       0.045367
     45 H2          -0.3610     0.6620    -0.7780 hc         1 2VL       0.045367
     46 H3          -0.3610     0.3430     0.9620 hc         1 2VL       0.045367
     47 H4           4.1460    -0.0060     2.1330 ha         1 2VL       0.131000
     48 H5           5.3680    -0.0160    -0.0040 ha         1 2VL       0.135000
     49 H6           4.1330    -0.0160    -2.1360 ha         1 2VL       0.167000
     50 H7           0.6320     0.4710    -2.4900 hn         1 2VL       0.325500
     51 H8           2.5630    -1.9370    -5.9280 ha         1 2VL       0.171000
     52 H9          -2.3850    -1.0690    -7.2820 hc         1 2VL       0.055700
     53 H10         -1.8860     0.6210    -7.4830 hc         1 2VL       0.055700
     54 H11         -1.9390    -0.7370    -9.6320 hc         1 2VL       0.048700
     55 H12         -0.3830     0.0380    -9.2800 hc         1 2VL       0.048700
     56 H13         -1.0330    -2.7870    -8.4310 hc         1 2VL       0.050200
     57 H14         -0.2070    -2.3630   -10.0020 hc         1 2VL       0.050200
     58 H15          1.6200    -1.3820    -8.8210 hc         1 2VL       0.054200
     59 H16          1.3490    -2.9810    -8.1020 hc         1 2VL       0.054200
     60 H17          2.3900     1.8020     3.1320 h4         1 2VL       0.163000
     61 H18         -1.5820    -1.9580     4.9380 hn         1 2VL       0.472800
     62 H19          1.0070    -3.0960     2.7470 ha         1 2VL       0.145000
     63 H20          0.8030    -4.9970     1.1920 ha         1 2VL       0.142000
     64 H21         -3.3730    -5.2600     2.0450 ha         1 2VL       0.142000
     65 H22         -3.1810    -3.3620     3.6060 ha         1 2VL       0.145000
     66 H23         -2.4530    -6.5100     0.2640 h1         1 2VL       0.053700
     67 H24          0.2270    -9.3550    -1.2380 h1         1 2VL       0.048200
     68 H25          1.3430    -8.0990    -0.6790 h1         1 2VL       0.048200
     69 H26         -1.5130    -7.7290    -1.6350 h1         1 2VL       0.044700
     70 H27         -0.0330    -7.1110    -2.3930 h1         1 2VL       0.044700
     71 H29         -2.1140    -5.2170    -1.7160 h1         1 2VL       0.038700
     72 H30         -1.1130    -4.1180    -0.7570 h1         1 2VL       0.038700
     73 H31         -0.4710    -4.8290    -2.2440 h1         1 2VL       0.038700
     74 H32          0.6680    -9.5110     2.3060 h1         1 2VL       0.043033
     75 H33         -0.7370   -10.3410     1.6220 h1         1 2VL       0.043033
     76 H34          0.8190   -10.3950     0.7810 h1         1 2VL       0.043033
     77 H35          0.3320     2.6600     5.7150 h1         1 2VL       0.057700
     78 H36          1.9760     2.8430     5.0880 h1         1 2VL       0.057700
     79 H37          1.6610     1.7420     6.4370 h1         1 2VL       0.057700
@<TRIPOS>BOND
     1    42    37 1   
     2    36    35 2   
     3    39    38 1   
     4    39    40 1   
     5    37    35 1   
     6    37    38 1   
     7    35    34 1   
     8    34    40 1   
     9    34    31 1   
    10    41    40 1   
    11    31    32 ar  
    12    31    30 ar  
    13    32    33 ar  
    14    30    29 ar  
    15    33    28 ar  
    16    29    28 ar  
    17    28    27 1   
    18    27    25 1   
    19    25    26 2   
    20    25    23 1   
    21    26    20 1   
    22    24    23 2   
    23    23    22 1   
    24     4     5 ar  
    25     4     3 ar  
    26     5     6 ar  
    27    20     3 1   
    28    20    21 2   
    29     3     2 ar  
    30    22    21 1   
    31    22    43 1   
    32     6     7 ar  
    33     2     7 ar  
    34     2     1 1   
    35     7     8 1   
    36     8     9 1   
    37    10     9 2   
    38     9    11 1   
    39    11    12 2   
    40    11    15 1   
    41    12    13 1   
    42    15    14 1   
    43    13    14 2   
    44    13    19 1   
    45    14    16 1   
    46    19    18 1   
    47    16    17 1   
    48    18    17 1   
    49     1    44 1   
    50     1    45 1   
    51     1    46 1   
    52     4    47 1   
    53     5    48 1   
    54     6    49 1   
    55     8    50 1   
    56    12    51 1   
    57    16    52 1   
    58    16    53 1   
    59    17    54 1   
    60    17    55 1   
    61    18    56 1   
    62    18    57 1   
    63    19    58 1   
    64    19    59 1   
    65    21    60 1   
    66    27    61 1   
    67    29    62 1   
    68    30    63 1   
    69    32    64 1   
    70    33    65 1   
    71    34    66 1   
    72    38    67 1   
    73    38    68 1   
    74    39    69 1   
    75    39    70 1   
    76    41    71 1   
    77    41    72 1   
    78    41    73 1   
    79    42    74 1   
    80    42    75 1   
    81    42    76 1   
    82    43    77 1   
    83    43    78 1   
    84    43    79 1   
@<TRIPOS>SUBSTRUCTURE
     1 2VL         1 TEMP              0 ****  ****    0 ROOT
