@<TRIPOS>MOLECULE
2VM
   53    56     1     0     0
SMALL
bcc


@<TRIPOS>ATOM
      1 CAM          0.0000     0.0000     0.0000 c3         1 2VM       0.070800
      2 CAL          1.5330     0.0000     0.0000 c3         1 2VM      -0.015400
      3 CAK          2.0400     0.0000     1.4450 c3         1 2VM      -0.148700
      4 CBD          3.5260    -0.2490     1.4570 c          1 2VM       0.979600
      5 OBF          4.2720     0.5750     1.9310 o          1 2VM      -0.896800
      6 OBE          4.0210    -1.3840     0.9390 o          1 2VM      -0.896800
      7 CAJ          1.7440     1.3590     2.0890 c3         1 2VM       0.061800
      8 CAH          0.2900     1.6960     1.8530 cc         1 2VM      -0.183300
      9 CAI         -0.4800     1.0890     0.9240 cd         1 2VM      -0.169400
     10 CAE         -1.7980     1.6850     1.0100 ca         1 2VM      -0.082800
     11 CAF         -2.9860     1.4600     0.3080 ca         1 2VM      -0.035000
     12 CAA         -4.0770     2.2330     0.6660 ca         1 2VM       0.017100
     13 Br          -5.7170     1.9820    -0.2410 br         1 2VM      -0.227100
     14 CAB         -4.0020     3.1860     1.6700 ca         1 2VM      -0.115000
     15 CAC         -2.8360     3.4240     2.3760 ca         1 2VM      -0.090000
     16 CAD         -1.7210     2.6600     2.0370 ca         1 2VM      -0.211200
     17 NAG         -0.4460     2.6390     2.5220 na         1 2VM       0.463600
     18 CAO          0.0610     3.4950     3.5980 c3         1 2VM      -0.134700
     19 CAP          0.6160     4.7660     3.0100 c          1 2VM       0.551100
     20 OAQ          0.5910     4.9400     1.8090 o          1 2VM      -0.630100
     21 N            1.1400     5.7110     3.8160 ns         1 2VM      -0.138900
     22 CA           1.6800     6.9460     3.2440 c3         1 2VM      -0.095300
     23 C            3.1080     6.7210     2.8200 c          1 2VM       0.967600
     24 OXT          3.8090     7.7220     2.2650 o          1 2VM      -0.877300
     25 O            3.6230     5.6400     2.9790 o          1 2VM      -0.877300
     26 CB           1.6290     8.0590     4.2930 c3         1 2VM       0.023900
     27 CG           0.1920     8.3680     4.6260 ca         1 2VM      -0.059300
     28 CD1         -0.4410     7.6900     5.6510 ca         1 2VM      -0.103000
     29 CE1         -1.7590     7.9740     5.9570 ca         1 2VM      -0.110000
     30 CZ          -2.4440     8.9360     5.2380 ca         1 2VM      -0.132000
     31 CE2         -1.8110     9.6150     4.2140 ca         1 2VM      -0.110000
     32 CD2         -0.4910     9.3350     3.9120 ca         1 2VM      -0.103000
     33 H1          -0.3630    -0.9590     0.3500 hc         1 2VM      -0.003300
     34 H2          -0.3630     0.1890    -1.0030 hc         1 2VM      -0.003300
     35 H3           1.8930     0.8860    -0.5080 hc         1 2VM       0.026200
     36 H4           1.8930    -0.8860    -0.5080 hc         1 2VM       0.026200
     37 H5           1.5350    -0.7790     2.0030 hc         1 2VM       0.013700
     38 H7           2.3700     2.1180     1.6380 hc         1 2VM       0.045700
     39 H8           1.9360     1.3050     3.1540 hc         1 2VM       0.045700
     40 H9          -3.1340     0.5270    -0.2220 ha         1 2VM       0.111000
     41 H10         -4.8870     3.7630     1.9100 ha         1 2VM       0.096000
     42 H11         -2.7910     4.1710     3.1590 ha         1 2VM       0.103000
     43 H12         -0.7470     3.7350     4.2790 h1         1 2VM       0.041200
     44 H13          0.8440     2.9740     4.1360 h1         1 2VM       0.041200
     45 H14          1.1940     5.5520     4.8030 hn         1 2VM       0.149500
     46 H15          1.0890     7.2340     2.3830 h1         1 2VM       0.058700
     47 H17          2.1070     8.9480     3.9000 hc         1 2VM       0.034200
     48 H18          2.1460     7.7360     5.1880 hc         1 2VM       0.034200
     49 H19          0.0960     6.9370     6.2150 ha         1 2VM       0.110000
     50 H20         -2.2550     7.4420     6.7600 ha         1 2VM       0.089500
     51 H21         -3.4780     9.1570     5.4760 ha         1 2VM       0.087000
     52 H22         -2.3470    10.3700     3.6520 ha         1 2VM       0.089500
     53 H23          0.0060     9.8670     3.1090 ha         1 2VM       0.110000
@<TRIPOS>BOND
     1     1     2 1   
     2     1     9 1   
     3     1    33 1   
     4     1    34 1   
     5     2     3 1   
     6     2    35 1   
     7     2    36 1   
     8     3     4 1   
     9     3     7 1   
    10     3    37 1   
    11     4     5 1   
    12     4     6 1   
    13     7     8 1   
    14     7    38 1   
    15     7    39 1   
    16     8     9 2   
    17     8    17 1   
    18     9    10 1   
    19    10    11 ar  
    20    10    16 ar  
    21    11    12 ar  
    22    11    40 1   
    23    12    13 1   
    24    12    14 ar  
    25    14    15 ar  
    26    14    41 1   
    27    15    16 ar  
    28    15    42 1   
    29    16    17 1   
    30    17    18 1   
    31    18    19 1   
    32    18    43 1   
    33    18    44 1   
    34    19    20 2   
    35    19    21 1   
    36    21    22 1   
    37    21    45 1   
    38    22    23 1   
    39    22    26 1   
    40    22    46 1   
    41    23    24 1   
    42    23    25 1   
    43    26    27 1   
    44    26    47 1   
    45    26    48 1   
    46    27    28 ar  
    47    27    32 ar  
    48    28    29 ar  
    49    28    49 1   
    50    29    30 ar  
    51    29    50 1   
    52    30    31 ar  
    53    30    51 1   
    54    31    32 ar  
    55    31    52 1   
    56    32    53 1   
@<TRIPOS>SUBSTRUCTURE
     1 2VM         1 TEMP              0 ****  ****    0 ROOT
