@<TRIPOS>MOLECULE
molecule
   53    56     1     0     0
SMALL
bcc


@<TRIPOS>ATOM
      1 CAM          0.0000     0.0000     0.0000 c3         1 2VM      -0.002200
      2 CAL          1.5330     0.0000     0.0000 c3         1 2VM      -0.061400
      3 CAK          2.0400     0.0000     1.4450 c3         1 2VM      -0.164700
      4 CBD          3.5260    -0.2490     1.4570 c          1 2VM       0.892600
      5 OBF          4.2720     0.5750     1.9310 o          1 2VM      -0.847800
      6 OBE          4.0210    -1.3840     0.9390 o          1 2VM      -0.847800
      7 CAJ          1.7440     1.3590     2.0890 c3         1 2VM      -0.008200
      8 CAH          0.2900     1.6960     1.8530 cc         1 2VM       0.005700
      9 CAI         -0.4800     1.0890     0.9240 cd         1 2VM      -0.175400
     10 CAE         -1.7980     1.6850     1.0100 ca         1 2VM      -0.084800
     11 CAF         -2.9860     1.4600     0.3080 ca         1 2VM      -0.061000
     12 CAA         -4.0770     2.2330     0.6660 ca         1 2VM      -0.055900
     13 Br          -5.7170     1.9820    -0.2410 br         1 2VM      -0.171100
     14 CAB         -4.0020     3.1860     1.6700 ca         1 2VM      -0.122000
     15 CAC         -2.8360     3.4240     2.3760 ca         1 2VM      -0.133000
     16 CAD         -1.7210     2.6600     2.0370 ca         1 2VM      -0.023200
     17 NAG         -0.4460     2.6390     2.5220 na         1 2VM      -0.035400
     18 CAO          0.0610     3.4950     3.5980 c3         1 2VM      -0.032700
     19 CAP          0.6160     4.7660     3.0100 c          1 2VM       0.642100
     20 OAQ          0.5910     4.9400     1.8090 o          1 2VM      -0.582100
     21 N            1.1400     5.7110     3.8160 ns         1 2VM      -0.551900
     22 CA           1.6800     6.9460     3.2440 c3         1 2VM       0.013700
     23 C            3.1080     6.7210     2.8200 c          1 2VM       0.880600
     24 OXT          3.8090     7.7220     2.2650 o          1 2VM      -0.828800
     25 O            3.6230     5.6400     2.9790 o          1 2VM      -0.828800
     26 CB           1.6290     8.0590     4.2930 c3         1 2VM      -0.041100
     27 CG           0.1920     8.3680     4.6260 ca         1 2VM      -0.051300
     28 CD1         -0.4410     7.6900     5.6510 ca         1 2VM      -0.128500
     29 CE1         -1.7590     7.9740     5.9570 ca         1 2VM      -0.135000
     30 CZ          -2.4440     8.9360     5.2380 ca         1 2VM      -0.156000
     31 CE2         -1.8110     9.6150     4.2140 ca         1 2VM      -0.135000
     32 CD2         -0.4910     9.3350     3.9120 ca         1 2VM      -0.128500
     33 H1          -0.3630    -0.9590     0.3500 hc         1 2VM       0.025700
     34 H2          -0.3630     0.1890    -1.0030 hc         1 2VM       0.025700
     35 H3           1.8930     0.8860    -0.5080 hc         1 2VM       0.053200
     36 H4           1.8930    -0.8860    -0.5080 hc         1 2VM       0.053200
     37 H5           1.5350    -0.7790     2.0030 hc         1 2VM       0.034700
     38 H7           2.3700     2.1180     1.6380 hc         1 2VM       0.078700
     39 H8           1.9360     1.3050     3.1540 hc         1 2VM       0.078700
     40 H9          -3.1340     0.5270    -0.2220 ha         1 2VM       0.137000
     41 H10         -4.8870     3.7630     1.9100 ha         1 2VM       0.118000
     42 H11         -2.7910     4.1710     3.1590 ha         1 2VM       0.130000
     43 H12         -0.7470     3.7350     4.2790 h1         1 2VM       0.068700
     44 H13          0.8440     2.9740     4.1360 h1         1 2VM       0.068700
     45 H14          1.1940     5.5520     4.8030 hn         1 2VM       0.289500
     46 H15          1.0890     7.2340     2.3830 h1         1 2VM       0.077700
     47 H17          2.1070     8.9480     3.9000 hc         1 2VM       0.062700
     48 H18          2.1460     7.7360     5.1880 hc         1 2VM       0.062700
     49 H19          0.0960     6.9370     6.2150 ha         1 2VM       0.131500
     50 H20         -2.2550     7.4420     6.7600 ha         1 2VM       0.112000
     51 H21         -3.4780     9.1570     5.4760 ha         1 2VM       0.108000
     52 H22         -2.3470    10.3700     3.6520 ha         1 2VM       0.112000
     53 H23          0.0060     9.8670     3.1090 ha         1 2VM       0.131500
@<TRIPOS>BOND
     1    31    30 ar  
     2    31    32 ar  
     3    30    29 ar  
     4    32    27 ar  
     5    29    28 ar  
     6    27    28 ar  
     7    27    26 1   
     8     5     4 1   
     9     2     1 1   
    10     2     3 1   
    11     1     9 1   
    12     4     6 1   
    13     4     3 1   
    14    26    22 1   
    15     3     7 1   
    16     9    10 1   
    17     9     8 2   
    18    11    10 ar  
    19    11    12 ar  
    20    22    23 1   
    21    22    21 1   
    22     7     8 1   
    23    10    16 ar  
    24    13    12 1   
    25     8    17 1   
    26    12    14 ar  
    27    23    25 1   
    28    23    24 1   
    29    21    19 1   
    30    16    17 1   
    31    16    15 ar  
    32    17    18 1   
    33    14    15 ar  
    34    19    20 2   
    35    19    18 1   
    36     1    33 1   
    37     1    34 1   
    38     2    35 1   
    39     2    36 1   
    40     3    37 1   
    41     7    38 1   
    42     7    39 1   
    43    11    40 1   
    44    14    41 1   
    45    15    42 1   
    46    18    43 1   
    47    18    44 1   
    48    21    45 1   
    49    22    46 1   
    50    26    47 1   
    51    26    48 1   
    52    28    49 1   
    53    29    50 1   
    54    30    51 1   
    55    31    52 1   
    56    32    53 1   
@<TRIPOS>SUBSTRUCTURE
     1 2VM         1 TEMP              0 ****  ****    0 ROOT
