@<TRIPOS>MOLECULE
molecule
   80    82     1     0     0
SMALL
bcc


@<TRIPOS>ATOM
      1 C26          0.0000     0.0000     0.0000 c3         1 2VN      -0.053900
      2 C1         -12.7890     0.0350    -2.4440 c3         1 2VN      -0.094400
      3 C10         -9.8480    -3.9950    -0.2630 c3         1 2VN      -0.110400
      4 C11        -10.5990    -4.5940     0.9280 c3         1 2VN      -0.084400
      5 C12        -11.0050    -6.0320     0.6030 c3         1 2VN      -0.076400
      6 C13        -11.7570    -6.6300     1.7950 c3         1 2VN      -0.070700
      7 C14        -10.8110    -6.7380     2.9920 c3         1 2VN      -0.075400
      8 C15        -11.5620    -7.3360     4.1840 c3         1 2VN      -0.079400
      9 C16        -12.0760    -8.7290     3.8150 c3         1 2VN      -0.079400
     10 C17        -13.0230    -8.6210     2.6170 c3         1 2VN      -0.079400
     11 C18        -12.2710    -8.0230     1.4250 c3         1 2VN      -0.075400
     12 C2         -11.4770    -0.5080    -3.0160 c3         1 2VN       0.134700
     13 C20         -5.1040    -1.0580    -0.5710 ca         1 2VN      -0.078300
     14 C21         -4.4100    -1.7290     0.4200 ca         1 2VN      -0.147500
     15 C22         -3.0390    -1.8600     0.3370 ca         1 2VN      -0.097000
     16 C23         -2.3550    -1.3180    -0.7440 ca         1 2VN       0.019900
     17 C24         -3.0550    -0.6440    -1.7380 ca         1 2VN      -0.097000
     18 C25         -4.4280    -0.5160    -1.6470 ca         1 2VN      -0.147500
     19 C27          1.5080     0.0000     0.0000 c          1 2VN       0.913600
     20 C28         -0.5100     0.0000     1.4420 c3         1 2VN      -0.074100
     21 C29         -0.5100     1.2490    -0.7220 c3         1 2VN      -0.074100
     22 C3         -11.7820    -1.4750    -4.1620 c3         1 2VN      -0.094400
     23 C4         -12.5530    -0.7390    -5.2600 c3         1 2VN      -0.076900
     24 C55        -13.8630    -0.1960    -4.6870 c3         1 2VN      -0.083400
     25 C6         -13.5590     0.7710    -3.5410 c3         1 2VN      -0.076900
     26 C7          -9.4010    -1.3340    -2.0470 c          1 2VN       0.784100
     27 C8          -7.2660    -2.1150    -1.1690 c3         1 2VN       0.128000
     28 C9          -9.4410    -2.5560     0.0610 c3         1 2VN       0.103000
     29 N2          -8.7220    -1.9830    -1.0790 n          1 2VN      -0.508800
     30 N1         -10.7400    -1.2130    -1.9650 ns         1 2VN      -0.605900
     31 O2           2.1780     1.0070     0.5810 o          1 2VN      -0.825800
     32 O1          -8.8030    -0.8590    -2.9940 o          1 2VN      -0.658100
     33 O3           2.1120    -0.9060    -0.5230 o          1 2VN      -0.825800
     34 S1          -0.6040    -1.4820    -0.8550 ss         1 2VN      -0.282000
     35 H2         -12.5710     0.7220    -1.6350 hc         1 2VN       0.046950
     36 H1         -13.3880    -0.7890    -2.0740 hc         1 2VN       0.046950
     37 H18         -8.9620    -4.5840    -0.4640 hc         1 2VN       0.052700
     38 H17        -10.4910    -4.0010    -1.1350 hc         1 2VN       0.052700
     39 H20        -11.4860    -4.0050     1.1290 hc         1 2VN       0.041200
     40 H19         -9.9560    -4.5880     1.8000 hc         1 2VN       0.041200
     41 H22        -10.1190    -6.6220     0.4030 hc         1 2VN       0.044200
     42 H21        -11.6480    -6.0380    -0.2690 hc         1 2VN       0.044200
     43 H23        -12.5950    -5.9950     2.0550 hc         1 2VN       0.048700
     44 H24         -9.9760    -7.3780     2.7350 hc         1 2VN       0.042700
     45 H25        -10.4480    -5.7510     3.2540 hc         1 2VN       0.042700
     46 H26        -12.4000    -6.6980     4.4380 hc         1 2VN       0.038950
     47 H27        -10.8910    -7.4130     5.0310 hc         1 2VN       0.038950
     48 H28        -12.6100    -9.1510     4.6580 hc         1 2VN       0.039200
     49 H29        -11.2390    -9.3650     3.5560 hc         1 2VN       0.039200
     50 H31        -13.3850    -9.6080     2.3550 hc         1 2VN       0.038950
     51 H30        -13.8570    -7.9810     2.8750 hc         1 2VN       0.038950
     52 H32        -12.9430    -7.9460     0.5790 hc         1 2VN       0.042700
     53 H33        -11.4330    -8.6610     1.1710 hc         1 2VN       0.042700
     54 H35         -6.9120    -0.0050    -0.9650 hc         1 2VN       0.049700
     55 H34         -6.8990    -0.8970     0.5630 hc         1 2VN       0.049700
     56 H3         -10.8810     0.3150    -3.3910 h1         1 2VN       0.082700
     57 HK6         -4.9430    -2.1420     1.2690 ha         1 2VN       0.123500
     58 HL7         -2.5050    -2.4450     1.0770 ha         1 2VN       0.142000
     59 HL8         -2.5340    -0.2780    -2.6140 ha         1 2VN       0.142000
     60 HK9         -4.7530     0.0980    -2.4790 ha         1 2VN       0.123500
     61 HJ2          0.0740     0.6970     2.0310 hc         1 2VN       0.032533
     62 HJ1         -1.5510     0.2980     1.4560 hc         1 2VN       0.032533
     63 HJ0         -0.4130    -0.9950     1.8590 hc         1 2VN       0.032533
     64 HJ4         -0.4070     1.1140    -1.7920 hc         1 2VN       0.032533
     65 HJ5         -1.5530     1.4070    -0.4770 hc         1 2VN       0.032533
     66 HJ3          0.0690     2.1090    -0.4090 hc         1 2VN       0.032533
     67 H4         -12.3830    -2.2960    -3.7890 hc         1 2VN       0.046950
     68 H5         -10.8530    -1.8560    -4.5680 hc         1 2VN       0.046950
     69 H7         -11.9540     0.0840    -5.6310 hc         1 2VN       0.043450
     70 H6         -12.7710    -1.4270    -6.0680 hc         1 2VN       0.043450
     71 H9         -14.4610    -1.0190    -4.3150 hc         1 2VN       0.038200
     72 H8         -14.4060     0.3280    -5.4650 hc         1 2VN       0.038200
     73 H11        -14.4890     1.1510    -3.1350 hc         1 2VN       0.043450
     74 H10        -12.9590     1.5920    -3.9130 hc         1 2VN       0.043450
     75 H14         -6.9690    -2.1400    -2.2100 h1         1 2VN       0.063700
     76 H13         -6.9560    -3.0320    -0.6820 h1         1 2VN       0.063700
     77 H16        -10.3280    -1.9660     0.2620 h1         1 2VN       0.046200
     78 H15         -8.7990    -2.5500     0.9330 h1         1 2VN       0.046200
     79 H12        -11.2260    -1.5640    -1.1630 hn         1 2VN       0.308500
     80 C19         -6.6020    -0.9220    -0.4790 c3         1 2VN      -0.054100
@<TRIPOS>BOND
     1     3    28 1   
     2     3     4 1   
     3     7     8 1   
     4     7     6 1   
     5    30    12 1   
     6    30    26 1   
     7    28    29 1   
     8    33    19 1   
     9    22    12 1   
    10    22    23 1   
    11     4     5 1   
    12     8     9 1   
    13    12     2 1   
    14    31    19 1   
    15    19     1 1   
    16     6     5 1   
    17     6    11 1   
    18    26    32 2   
    19    26    29 1   
    20    21     1 1   
    21    20     1 1   
    22    29    27 1   
    23     1    34 1   
    24    23    24 1   
    25     9    10 1   
    26    11    10 1   
    27     2    25 1   
    28    27    80 1   
    29    24    25 1   
    30    34    16 1   
    31    15    16 ar  
    32    15    14 ar  
    33    16    17 ar  
    34    14    13 ar  
    35    17    18 ar  
    36    13    18 ar  
    37    13    80 1   
    38     2    35 1   
    39     2    36 1   
    40     3    37 1   
    41     3    38 1   
    42     4    39 1   
    43     4    40 1   
    44     5    41 1   
    45     5    42 1   
    46     6    43 1   
    47     7    44 1   
    48     7    45 1   
    49     8    46 1   
    50     8    47 1   
    51     9    48 1   
    52     9    49 1   
    53    10    50 1   
    54    10    51 1   
    55    11    52 1   
    56    11    53 1   
    57    80    54 1   
    58    80    55 1   
    59    12    56 1   
    60    14    57 1   
    61    15    58 1   
    62    17    59 1   
    63    18    60 1   
    64    20    61 1   
    65    20    62 1   
    66    20    63 1   
    67    21    64 1   
    68    21    65 1   
    69    21    66 1   
    70    22    67 1   
    71    22    68 1   
    72    23    69 1   
    73    23    70 1   
    74    24    71 1   
    75    24    72 1   
    76    25    73 1   
    77    25    74 1   
    78    27    75 1   
    79    27    76 1   
    80    28    77 1   
    81    28    78 1   
    82    30    79 1   
@<TRIPOS>SUBSTRUCTURE
     1 2VN         1 TEMP              0 ****  ****    0 ROOT
