@<TRIPOS>MOLECULE
2VN
   80    82     1     0     0
SMALL
bcc


@<TRIPOS>ATOM
      1 C26          0.0000     0.0000     0.0000 c3         1 2VN      -0.012900
      2 C1         -12.7890     0.0350    -2.4440 c3         1 2VN      -0.041900
      3 C10         -9.8480    -3.9950    -0.2630 c3         1 2VN      -0.058400
      4 C11        -10.5990    -4.5940     0.9280 c3         1 2VN      -0.033400
      5 C12        -11.0050    -6.0320     0.6030 c3         1 2VN      -0.025400
      6 C13        -11.7570    -6.6300     1.7950 c3         1 2VN      -0.051700
      7 C14        -10.8110    -6.7380     2.9920 c3         1 2VN      -0.026900
      8 C15        -11.5620    -7.3360     4.1840 c3         1 2VN      -0.022900
      9 C16        -12.0760    -8.7290     3.8150 c3         1 2VN      -0.025400
     10 C17        -13.0230    -8.6210     2.6170 c3         1 2VN      -0.022900
     11 C18        -12.2710    -8.0230     1.4250 c3         1 2VN      -0.026900
     12 C2         -11.4770    -0.5080    -3.0160 c3         1 2VN       0.034700
     13 C20         -5.1040    -1.0580    -0.5710 ca         1 2VN      -0.074300
     14 C21         -4.4100    -1.7290     0.4200 ca         1 2VN      -0.128500
     15 C22         -3.0390    -1.8600     0.3370 ca         1 2VN      -0.063500
     16 C23         -2.3550    -1.3180    -0.7440 ca         1 2VN       0.029900
     17 C24         -3.0550    -0.6440    -1.7380 ca         1 2VN      -0.063500
     18 C25         -4.4280    -0.5160    -1.6470 ca         1 2VN      -0.128500
     19 C27          1.5080     0.0000     0.0000 c          1 2VN       1.001600
     20 C28         -0.5100     0.0000     1.4420 c3         1 2VN      -0.001600
     21 C29         -0.5100     1.2490    -0.7220 c3         1 2VN      -0.001600
     22 C3         -11.7820    -1.4750    -4.1620 c3         1 2VN      -0.041900
     23 C4         -12.5530    -0.7390    -5.2600 c3         1 2VN      -0.017400
     24 C55        -13.8630    -0.1960    -4.6870 c3         1 2VN      -0.028400
     25 C6         -13.5590     0.7710    -3.5410 c3         1 2VN      -0.017400
     26 C7          -9.4010    -1.3340    -2.0470 c          1 2VN       0.597100
     27 C8          -7.2660    -2.1150    -1.1690 c3         1 2VN       0.066000
     28 C9          -9.4410    -2.5560     0.0610 c3         1 2VN       0.043000
     29 N2          -8.7220    -1.9830    -1.0790 n          1 2VN      -0.176800
     30 N1         -10.7400    -1.2130    -1.9650 ns         1 2VN      -0.234900
     31 O2           2.1780     1.0070     0.5810 o          1 2VN      -0.869800
     32 O1          -8.8030    -0.8590    -2.9940 o          1 2VN      -0.701100
     33 O3           2.1120    -0.9060    -0.5230 o          1 2VN      -0.869800
     34 S1          -0.6040    -1.4820    -0.8550 ss         1 2VN      -0.360000
     35 H2         -12.5710     0.7220    -1.6350 hc         1 2VN       0.019450
     36 H1         -13.3880    -0.7890    -2.0740 hc         1 2VN       0.019450
     37 H18         -8.9620    -4.5840    -0.4640 hc         1 2VN       0.024700
     38 H17        -10.4910    -4.0010    -1.1350 hc         1 2VN       0.024700
     39 H20        -11.4860    -4.0050     1.1290 hc         1 2VN       0.017700
     40 H19         -9.9560    -4.5880     1.8000 hc         1 2VN       0.017700
     41 H22        -10.1190    -6.6220     0.4030 hc         1 2VN       0.018200
     42 H21        -11.6480    -6.0380    -0.2690 hc         1 2VN       0.018200
     43 H23        -12.5950    -5.9950     2.0550 hc         1 2VN       0.028700
     44 H24         -9.9760    -7.3780     2.7350 hc         1 2VN       0.017700
     45 H25        -10.4480    -5.7510     3.2540 hc         1 2VN       0.017700
     46 H26        -12.4000    -6.6980     4.4380 hc         1 2VN       0.011450
     47 H27        -10.8910    -7.4130     5.0310 hc         1 2VN       0.011450
     48 H28        -12.6100    -9.1510     4.6580 hc         1 2VN       0.012200
     49 H29        -11.2390    -9.3650     3.5560 hc         1 2VN       0.012200
     50 H31        -13.3850    -9.6080     2.3550 hc         1 2VN       0.011450
     51 H30        -13.8570    -7.9810     2.8750 hc         1 2VN       0.011450
     52 H32        -12.9430    -7.9460     0.5790 hc         1 2VN       0.017700
     53 H33        -11.4330    -8.6610     1.1710 hc         1 2VN       0.017700
     54 H35         -6.9120    -0.0050    -0.9650 hc         1 2VN       0.020200
     55 H34         -6.8990    -0.8970     0.5630 hc         1 2VN       0.020200
     56 H3         -10.8810     0.3150    -3.3910 h1         1 2VN       0.060700
     57 HK6         -4.9430    -2.1420     1.2690 ha         1 2VN       0.103500
     58 HL7         -2.5050    -2.4450     1.0770 ha         1 2VN       0.119500
     59 HL8         -2.5340    -0.2780    -2.6140 ha         1 2VN       0.119500
     60 HK9         -4.7530     0.0980    -2.4790 ha         1 2VN       0.103500
     61 HJ2          0.0740     0.6970     2.0310 hc         1 2VN       0.008200
     62 HJ1         -1.5510     0.2980     1.4560 hc         1 2VN       0.008200
     63 HJ0         -0.4130    -0.9950     1.8590 hc         1 2VN       0.008200
     64 HJ4         -0.4070     1.1140    -1.7920 hc         1 2VN       0.008200
     65 HJ5         -1.5530     1.4070    -0.4770 hc         1 2VN       0.008200
     66 HJ3          0.0690     2.1090    -0.4090 hc         1 2VN       0.008200
     67 H4         -12.3830    -2.2960    -3.7890 hc         1 2VN       0.019450
     68 H5         -10.8530    -1.8560    -4.5680 hc         1 2VN       0.019450
     69 H7         -11.9540     0.0840    -5.6310 hc         1 2VN       0.014700
     70 H6         -12.7710    -1.4270    -6.0680 hc         1 2VN       0.014700
     71 H9         -14.4610    -1.0190    -4.3150 hc         1 2VN       0.010200
     72 H8         -14.4060     0.3280    -5.4650 hc         1 2VN       0.010200
     73 H11        -14.4890     1.1510    -3.1350 hc         1 2VN       0.014700
     74 H10        -12.9590     1.5920    -3.9130 hc         1 2VN       0.014700
     75 H14         -6.9690    -2.1400    -2.2100 h1         1 2VN       0.036700
     76 H13         -6.9560    -3.0320    -0.6820 h1         1 2VN       0.036700
     77 H16        -10.3280    -1.9660     0.2620 h1         1 2VN       0.022700
     78 H15         -8.7990    -2.5500     0.9330 h1         1 2VN       0.022700
     79 H12        -11.2260    -1.5640    -1.1630 hn         1 2VN       0.178500
     80 C19         -6.6020    -0.9220    -0.4790 c3         1 2VN       0.008900
@<TRIPOS>BOND
     1     1    19 1   
     2     1    20 1   
     3     1    21 1   
     4     1    34 1   
     5     2    12 1   
     6     2    25 1   
     7     2    35 1   
     8     2    36 1   
     9     3     4 1   
    10     3    28 1   
    11     3    37 1   
    12     3    38 1   
    13     4     5 1   
    14     4    39 1   
    15     4    40 1   
    16     5     6 1   
    17     5    41 1   
    18     5    42 1   
    19     6     7 1   
    20     6    11 1   
    21     6    43 1   
    22     7     8 1   
    23     7    44 1   
    24     7    45 1   
    25     8     9 1   
    26     8    46 1   
    27     8    47 1   
    28     9    10 1   
    29     9    48 1   
    30     9    49 1   
    31    10    11 1   
    32    10    50 1   
    33    10    51 1   
    34    11    52 1   
    35    11    53 1   
    36    12    22 1   
    37    12    30 1   
    38    12    56 1   
    39    13    14 ar  
    40    13    18 ar  
    41    13    80 1   
    42    14    15 ar  
    43    14    57 1   
    44    15    16 ar  
    45    15    58 1   
    46    16    17 ar  
    47    16    34 1   
    48    17    18 ar  
    49    17    59 1   
    50    18    60 1   
    51    19    31 1   
    52    19    33 1   
    53    20    61 1   
    54    20    62 1   
    55    20    63 1   
    56    21    64 1   
    57    21    65 1   
    58    21    66 1   
    59    22    23 1   
    60    22    67 1   
    61    22    68 1   
    62    23    24 1   
    63    23    69 1   
    64    23    70 1   
    65    24    25 1   
    66    24    71 1   
    67    24    72 1   
    68    25    73 1   
    69    25    74 1   
    70    26    29 1   
    71    26    30 1   
    72    26    32 2   
    73    27    29 1   
    74    27    75 1   
    75    27    76 1   
    76    27    80 1   
    77    28    29 1   
    78    28    77 1   
    79    28    78 1   
    80    30    79 1   
    81    54    80 1   
    82    55    80 1   
@<TRIPOS>SUBSTRUCTURE
     1 2VN         1 TEMP              0 ****  ****    0 ROOT
