@<TRIPOS>MOLECULE
2VO
   81    84     1     0     0
SMALL
bcc


@<TRIPOS>ATOM
      1 C01          0.0000     0.0000     0.0000 c2         1 2VO      -0.139000
      2 C02          1.3420     0.0000     0.0000 ce         1 2VO      -0.095000
      3 C03          2.0510     0.0000     1.2270 cc         1 2VO      -0.182200
      4 C04          3.4060    -0.0010     1.4050 cd         1 2VO      -0.220800
      5 C05          4.4490     0.0010     0.3160 c3         1 2VO       0.080100
      6 C06          3.6480    -0.0010     2.7980 cd         1 2VO       0.496600
      7 C07          5.0180    -0.0010     3.4280 c3         1 2VO       0.059600
      8 C08          4.8800    -0.0010     4.9290 cc         1 2VO      -0.360600
      9 N09          4.8960     1.0990     5.7330 na         1 2VO       0.429900
     10 C10          4.7430     0.6980     7.0280 cc         1 2VO      -0.309600
     11 C11          4.7060     1.6010     8.2330 c3         1 2VO       0.167200
     12 C12          6.0830     1.6870     8.8390 cc         1 2VO      -0.292600
     13 N13          6.5520     0.9200     9.8670 na         1 2VO       0.384900
     14 C14          7.8480     1.2890    10.1320 cc         1 2VO      -0.317100
     15 C15          8.7200     0.7110    11.1640 ce         1 2VO      -0.059200
     16 C16          8.1880     0.0040    12.1690 c2         1 2VO      -0.194600
     17 N17          6.8410    -0.1070    12.4510 ns         1 2VO      -0.032100
     18 C18          6.5780    -0.8770    13.5150 c          1 2VO       0.608500
     19 O19          5.4710    -1.1180    13.9470 o          1 2VO      -0.632500
     20 C20          7.8720    -1.4000    14.0950 c3         1 2VO      -0.149700
     21 C21          8.0490    -0.9120    15.5340 c3         1 2VO       0.024900
     22 C22          8.9640    -0.8110    13.1820 c3         1 2VO       0.009500
     23 C23          9.7500    -1.9280    12.4950 c3         1 2VO      -0.022400
     24 C24         10.5020    -2.7450    13.5470 c3         1 2VO      -0.000100
     25 C25          8.1830     2.2900     9.2640 cd         1 2VO      -0.137300
     26 C26          9.5110     2.9990     9.1900 c3         1 2VO       0.099200
     27 C27          7.0630     2.5330     8.4530 cd         1 2VO      -0.141300
     28 C28          6.9720     3.5510     7.3460 c3         1 2VO       0.073900
     29 C29          6.4650     4.8780     7.9140 c3         1 2VO      -0.135400
     30 C30          6.3750     5.8970     6.8060 c          1 2VO       0.981600
     31 O31          6.6840     5.5920     5.6790 o          1 2VO      -0.914300
     32 O32          5.9500     7.1420     7.0730 o          1 2VO      -0.914300
     33 C33          4.6320    -0.6450     7.0410 cd         1 2VO      -0.136300
     34 C34          4.4470    -1.5120     8.2600 c3         1 2VO       0.077900
     35 C39          4.7130    -1.0900     5.7060 cd         1 2VO      -0.140300
     36 C40          4.6310    -2.5190     5.2360 c3         1 2VO       0.100200
     37 N41          2.5210    -0.0010     3.4670 nc         1 2VO      -0.550100
     38 C42          1.4740     0.0060     2.6170 c          1 2VO       0.715700
     39 O43          0.2980     0.0130     2.9150 o          1 2VO      -0.492100
     40 C35          2.9540    -1.6870     8.5410 c3         1 2VO      -0.135400
     41 C36          2.7690    -2.5540     9.7590 c          1 2VO       0.979600
     42 O37          3.7340    -2.9870    10.3440 o          1 2VO      -0.912800
     43 O38          1.5330    -2.8460    10.1960 o          1 2VO      -0.912800
     44 H1          -0.5420     0.0000     0.9380 ha         1 2VO       0.096500
     45 H2          -0.5420    -0.0000    -0.9380 ha         1 2VO       0.096500
     46 H3           1.8840     0.0000    -0.9380 ha         1 2VO       0.096000
     47 H4           4.3490     0.9000    -0.2780 hc         1 2VO       0.010367
     48 H5           5.4360    -0.0300     0.7620 hc         1 2VO       0.010367
     49 H6           4.3110    -0.8680    -0.3160 hc         1 2VO       0.010367
     50 H7           5.5600     0.8830     3.1150 hc         1 2VO       0.030200
     51 H8           5.5590    -0.8860     3.1150 hc         1 2VO       0.030200
     52 H9           5.0000     2.0460     5.4240 hn         1 2VO       0.121700
     53 H10          4.3800     2.5900     7.9340 hc         1 2VO       0.033200
     54 H11          4.0150     1.1980     8.9640 hc         1 2VO       0.033200
     55 H12          6.0380     0.2080    10.3470 hn         1 2VO       0.136700
     56 H13          9.7880     0.8860    11.1320 ha         1 2VO       0.115000
     57 H14          6.1290     0.3450    11.9120 hn         1 2VO       0.193500
     58 H15          7.8910    -2.4830    14.0520 hc         1 2VO       0.061700
     59 H16          9.0410    -1.1720    15.8840 hc         1 2VO       0.002700
     60 H17          7.3080    -1.3820    16.1690 hc         1 2VO       0.002700
     61 H18          7.9250     0.1640    15.5690 hc         1 2VO       0.002700
     62 H19          9.6260    -0.1700    13.7520 hc         1 2VO       0.034700
     63 H20          9.0660    -2.5740    11.9580 hc         1 2VO       0.025200
     64 H21         10.4590    -1.4960    11.7990 hc         1 2VO       0.025200
     65 H22          9.8240    -3.4530    14.0070 hc         1 2VO      -0.001967
     66 H23         10.8980    -2.0800    14.3050 hc         1 2VO      -0.001967
     67 H24         11.3170    -3.2800    13.0750 hc         1 2VO      -0.001967
     68 H25          9.5720     3.7350     9.9830 hc         1 2VO      -0.002967
     69 H26          9.6030     3.4940     8.2310 hc         1 2VO      -0.002967
     70 H27         10.3120     2.2790     9.3030 hc         1 2VO      -0.002967
     71 H28          6.2860     3.1980     6.5860 hc         1 2VO       0.014700
     72 H29          7.9520     3.6970     6.9080 hc         1 2VO       0.014700
     73 H30          7.1510     5.2310     8.6740 hc         1 2VO       0.010200
     74 H31          5.4850     4.7320     8.3510 hc         1 2VO       0.010200
     75 H33          4.9220    -1.0420     9.1130 hc         1 2VO       0.010700
     76 H34          4.8970    -2.4820     8.0860 hc         1 2VO       0.010700
     77 H35          5.1040    -3.1670     5.9650 hc         1 2VO      -0.003967
     78 H36          3.5920    -2.8030     5.1220 hc         1 2VO      -0.003967
     79 H37          5.1390    -2.6160     4.2840 hc         1 2VO      -0.003967
     80 H38          2.4790    -2.1570     7.6880 hc         1 2VO       0.012200
     81 H39          2.5030    -0.7180     8.7160 hc         1 2VO       0.012200
@<TRIPOS>BOND
     1     1     2 2   
     2     1    44 1   
     3     1    45 1   
     4     2     3 1   
     5     2    46 1   
     6     3     4 2   
     7     3    38 1   
     8     4     5 1   
     9     4     6 1   
    10     5    47 1   
    11     5    48 1   
    12     5    49 1   
    13     6     7 1   
    14     6    37 2   
    15     7     8 1   
    16     7    50 1   
    17     7    51 1   
    18     8     9 1   
    19     8    35 2   
    20     9    10 1   
    21     9    52 1   
    22    10    11 1   
    23    10    33 2   
    24    11    12 1   
    25    11    53 1   
    26    11    54 1   
    27    12    13 1   
    28    12    27 2   
    29    13    14 1   
    30    13    55 1   
    31    14    15 1   
    32    14    25 2   
    33    15    16 2   
    34    15    56 1   
    35    16    17 1   
    36    16    22 1   
    37    17    18 1   
    38    17    57 1   
    39    18    19 2   
    40    18    20 1   
    41    20    21 1   
    42    20    22 1   
    43    20    58 1   
    44    21    59 1   
    45    21    60 1   
    46    21    61 1   
    47    22    23 1   
    48    22    62 1   
    49    23    24 1   
    50    23    63 1   
    51    23    64 1   
    52    24    65 1   
    53    24    66 1   
    54    24    67 1   
    55    25    26 1   
    56    25    27 1   
    57    26    68 1   
    58    26    69 1   
    59    26    70 1   
    60    27    28 1   
    61    28    29 1   
    62    28    71 1   
    63    28    72 1   
    64    29    30 1   
    65    29    73 1   
    66    29    74 1   
    67    30    31 1   
    68    30    32 1   
    69    33    34 1   
    70    33    35 1   
    71    34    40 1   
    72    34    75 1   
    73    34    76 1   
    74    35    36 1   
    75    36    77 1   
    76    36    78 1   
    77    36    79 1   
    78    37    38 1   
    79    38    39 2   
    80    40    41 1   
    81    40    80 1   
    82    40    81 1   
    83    41    42 1   
    84    41    43 1   
@<TRIPOS>SUBSTRUCTURE
     1 2VO         1 TEMP              0 ****  ****    0 ROOT
