@<TRIPOS>MOLECULE
molecule
   81    84     1     0     0
SMALL
bcc


@<TRIPOS>ATOM
      1 C01          0.0000     0.0000     0.0000 c2         1 2VO      -0.185000
      2 C02          1.3420     0.0000     0.0000 ce         1 2VO      -0.126000
      3 C03          2.0510     0.0000     1.2270 cc         1 2VO      -0.172200
      4 C04          3.4060    -0.0010     1.4050 cd         1 2VO      -0.233800
      5 C05          4.4490     0.0010     0.3160 c3         1 2VO      -0.032900
      6 C06          3.6480    -0.0010     2.7980 cd         1 2VO       0.541600
      7 C07          5.0180    -0.0010     3.4280 c3         1 2VO      -0.030400
      8 C08          4.8800    -0.0010     4.9290 cc         1 2VO      -0.145600
      9 N09          4.8960     1.0990     5.7330 na         1 2VO      -0.141100
     10 C10          4.7430     0.6980     7.0280 cc         1 2VO      -0.097600
     11 C11          4.7060     1.6010     8.2330 c3         1 2VO       0.065200
     12 C12          6.0830     1.6870     8.8390 cc         1 2VO      -0.093600
     13 N13          6.5520     0.9200     9.8670 na         1 2VO      -0.162100
     14 C14          7.8480     1.2890    10.1320 cc         1 2VO      -0.117100
     15 C15          8.7200     0.7110    11.1640 ce         1 2VO      -0.121200
     16 C16          8.1880     0.0040    12.1690 c2         1 2VO      -0.018600
     17 N17          6.8410    -0.1070    12.4510 ns         1 2VO      -0.467100
     18 C18          6.5780    -0.8770    13.5150 c          1 2VO       0.705500
     19 O19          5.4710    -1.1180    13.9470 o          1 2VO      -0.594500
     20 C20          7.8720    -1.4000    14.0950 c3         1 2VO      -0.163700
     21 C21          8.0490    -0.9120    15.5340 c3         1 2VO      -0.074100
     22 C22          8.9640    -0.8110    13.1820 c3         1 2VO      -0.032500
     23 C23          9.7500    -1.9280    12.4950 c3         1 2VO      -0.074400
     24 C24         10.5020    -2.7450    13.5470 c3         1 2VO      -0.094100
     25 C25          8.1830     2.2900     9.2640 cd         1 2VO      -0.134300
     26 C26          9.5110     2.9990     9.1900 c3         1 2VO      -0.009800
     27 C27          7.0630     2.5330     8.4530 cd         1 2VO      -0.140300
     28 C28          6.9720     3.5510     7.3460 c3         1 2VO       0.010900
     29 C29          6.4650     4.8780     7.9140 c3         1 2VO      -0.179400
     30 C30          6.3750     5.8970     6.8060 c          1 2VO       0.890600
     31 O31          6.6840     5.5920     5.6790 o          1 2VO      -0.865800
     32 O32          5.9500     7.1420     7.0730 o          1 2VO      -0.865800
     33 C33          4.6320    -0.6450     7.0410 cd         1 2VO      -0.134300
     34 C34          4.4470    -1.5120     8.2600 c3         1 2VO       0.012900
     35 C39          4.7130    -1.0900     5.7060 cd         1 2VO      -0.132300
     36 C40          4.6310    -2.5190     5.2360 c3         1 2VO      -0.009800
     37 N41          2.5210    -0.0010     3.4670 nc         1 2VO      -0.616100
     38 C42          1.4740     0.0060     2.6170 c          1 2VO       0.696700
     39 O43          0.2980     0.0130     2.9150 o          1 2VO      -0.465100
     40 C35          2.9540    -1.6870     8.5410 c3         1 2VO      -0.179400
     41 C36          2.7690    -2.5540     9.7590 c          1 2VO       0.888600
     42 O37          3.7340    -2.9870    10.3440 o          1 2VO      -0.863800
     43 O38          1.5330    -2.8460    10.1960 o          1 2VO      -0.863800
     44 H1          -0.5420    -0.0000    -0.9380 ha         1 2VO       0.127000
     45 H2          -0.5420     0.0000     0.9380 ha         1 2VO       0.127000
     46 H3           1.8840    -0.0000    -0.9380 ha         1 2VO       0.119000
     47 H4           4.2780     0.8410    -0.3460 hc         1 2VO       0.045700
     48 H5           5.4340     0.0840     0.7600 hc         1 2VO       0.045700
     49 H6           4.3830    -0.9220    -0.2470 hc         1 2VO       0.045700
     50 H7           5.5600     0.8830     3.1150 hc         1 2VO       0.071200
     51 H8           5.5590    -0.8860     3.1150 hc         1 2VO       0.071200
     52 H9           4.9990     2.0460     5.4240 hn         1 2VO       0.303700
     53 H10          4.3800     2.5900     7.9340 hc         1 2VO       0.071700
     54 H11          4.0150     1.1980     8.9640 hc         1 2VO       0.071700
     55 H12          6.0380     0.2090    10.3480 hn         1 2VO       0.305700
     56 H13          9.7950     0.7320    11.0310 ha         1 2VO       0.142000
     57 H14          6.1290     0.3450    11.9130 hn         1 2VO       0.349500
     58 H15          7.8910    -2.4830    14.0520 hc         1 2VO       0.086700
     59 H16          9.0460    -1.1590    15.8790 hc         1 2VO       0.036700
     60 H17          7.9100     0.1620    15.5710 hc         1 2VO       0.036700
     61 H18          7.3180    -1.3930    16.1720 hc         1 2VO       0.036700
     62 H19          9.6260    -0.1700    13.7520 hc         1 2VO       0.059700
     63 H20         10.4590    -1.4960    11.7990 hc         1 2VO       0.054700
     64 H21          9.0660    -2.5740    11.9580 hc         1 2VO       0.054700
     65 H22          9.8230    -3.4490    14.0110 hc         1 2VO       0.028700
     66 H23         11.3140    -3.2840    13.0740 hc         1 2VO       0.028700
     67 H24         10.9030    -2.0790    14.3020 hc         1 2VO       0.028700
     68 H25         10.3120     2.2750     9.2770 hc         1 2VO       0.030367
     69 H26          9.5820     3.7170     9.9980 hc         1 2VO       0.030367
     70 H27          9.5920     3.5150     8.2410 hc         1 2VO       0.030367
     71 H28          7.9520     3.6970     6.9090 hc         1 2VO       0.041200
     72 H29          6.2860     3.1980     6.5860 hc         1 2VO       0.041200
     73 H30          5.4850     4.7320     8.3510 hc         1 2VO       0.033700
     74 H31          7.1510     5.2310     8.6740 hc         1 2VO       0.033700
     75 H33          4.9220    -1.0420     9.1130 hc         1 2VO       0.038700
     76 H34          4.8970    -2.4820     8.0860 hc         1 2VO       0.038700
     77 H35          5.1640    -2.6220     4.2990 hc         1 2VO       0.029033
     78 H36          5.0780    -3.1700     5.9790 hc         1 2VO       0.029033
     79 H37          3.5930    -2.7940     5.0940 hc         1 2VO       0.029033
     80 H38          2.4790    -2.1570     7.6880 hc         1 2VO       0.035700
     81 H39          2.5030    -0.7180     8.7160 hc         1 2VO       0.035700
@<TRIPOS>BOND
     1    24    23 1
     2    21    20 1
     3    20    18 1
     4    20    22 1
     5    23    22 1
     6    19    18 2
     7    18    17 1
     8    22    16 1
     9    17    16 1
    10    16    15 2
    11    15    14 1
    12     1     2 2
    13     2     3 1
    14     5     4 1
    15     3     4 2
    16     3    38 1
    17     4     6 1
    18    38    39 2
    19    38    37 1
    20     6    37 2
    21     6     7 1
    22     7     8 1
    23    14    13 1
    24    14    25 2
    25    13    12 1
    26    26    25 1
    27    25    27 1
    28     9     8 1
    29     9    10 1
    30     8    35 2
    31    12    27 2
    32    12    11 1
    33    27    28 1
    34    10    11 1
    35    10    33 2
    36    35    36 1
    37    35    33 1
    38    33    34 1
    39    29    28 1
    40    29    30 1
    41    34    40 1
    42    40    41 1
    43    30    31 1
    44    30    32 1
    45    41    42 1
    46    41    43 1
    47     1    44 1
    48     1    45 1
    49     2    46 1
    50     5    47 1
    51     5    48 1
    52     5    49 1
    53     7    50 1
    54     7    51 1
    55     9    52 1
    56    11    53 1
    57    11    54 1
    58    13    55 1
    59    15    56 1
    60    17    57 1
    61    20    58 1
    62    21    59 1
    63    21    60 1
    64    21    61 1
    65    22    62 1
    66    23    63 1
    67    23    64 1
    68    24    65 1
    69    24    66 1
    70    24    67 1
    71    26    68 1
    72    26    69 1
    73    26    70 1
    74    28    71 1
    75    28    72 1
    76    29    73 1
    77    29    74 1
    78    34    75 1
    79    34    76 1
    80    36    77 1
    81    36    78 1
    82    36    79 1
    83    40    80 1
    84    40    81 1
@<TRIPOS>SUBSTRUCTURE
     1 2VO         1 TEMP              0 ****  ****    0 ROOT
