@<TRIPOS>MOLECULE
2VP
   46    47     1     0     0
SMALL
bcc


@<TRIPOS>ATOM
      1 C2'         0.0450    0.1870    0.2780 c3        1 2VP     -0.035200
      2 C1'         1.5550    0.2970    0.3200 c3        1 2VP     -0.073400
      3 C18         2.0760    0.0980    1.7260 c3        1 2VP     -0.031100
      4 C5          1.4440   -1.0530    2.4270 ca        1 2VP     -0.073300
      5 C4          2.0560   -1.5390    3.5880 ca        1 2VP     -0.134000
      6 C3          1.4900   -2.5830    4.3110 ca        1 2VP     -0.136000
      7 C2          0.2880   -3.1570    3.8840 ca        1 2VP     -0.082300
      8 C7'        -0.3250   -4.2750    4.6380 c3        1 2VP     -0.050800
      9 C1         -0.3250   -2.6760    2.7250 ca        1 2VP     -0.124000
     10 C6          0.2430   -1.6360    1.9740 ca        1 2VP     -0.019800
     11 C7         -0.3990   -1.1580    0.7490 ce        1 2VP     -0.088400
     12 C8         -1.3020   -1.8990    0.0740 cf        1 2VP     -0.075000
     13 C9         -2.0350   -1.4970   -1.1150 cf        1 2VP     -0.155200
     14 C19        -2.7750   -0.2090   -1.0710 c3        1 2VP     -0.042900
     15 C10        -2.1120   -2.2800   -2.2150 ce        1 2VP     -0.065000
     16 C11        -1.4640   -3.5550   -2.3810 ce        1 2VP     -0.229000
     17 C12        -1.6090   -4.2980   -3.4990 cf        1 2VP     -0.034000
     18 C13        -0.9990   -5.5920   -3.7340 cf        1 2VP     -0.161200
     19 C20        -0.1660   -6.1700   -2.6510 c3        1 2VP     -0.048900
     20 C14        -1.2030   -6.2250   -4.9080 ce        1 2VP     -0.126200
     21 C15        -0.6050   -7.5450   -5.3430 c         1 2VP      0.892800
     22 O2         -0.6450   -8.5370   -4.5630 o         1 2VP     -0.827800
     23 O1         -0.1130   -7.5790   -6.5080 o         1 2VP     -0.827800
     24 H1         -0.4110    0.9780    0.9330 hc        1 2VP      0.047200
     25 H2         -0.3080    0.3710   -0.7710 hc        1 2VP      0.047200
     26 H3          2.0020   -0.4740   -0.3620 hc        1 2VP      0.044200
     27 H4          1.8710    1.3040   -0.0570 hc        1 2VP      0.044200
     28 H5          3.1900   -0.0440    1.6940 hc        1 2VP      0.042200
     29 H6          1.8790    1.0260    2.3310 hc        1 2VP      0.042200
     30 H7          2.9990   -1.0870    3.9290 ha        1 2VP      0.122000
     31 H8          1.9860   -2.9570    5.2180 ha        1 2VP      0.123000
     32 H9         -1.4370   -4.1650    4.6750 hc        1 2VP      0.041367
     33 H10        -0.0870   -5.2480    4.1380 hc        1 2VP      0.041367
     34 H11         0.0620   -4.3160    5.6860 hc        1 2VP      0.041367
     35 H12        -1.2770   -3.1270    2.4050 ha        1 2VP      0.136000
     36 H13        -1.5330   -2.9280    0.4100 ha        1 2VP      0.128000
     37 H14        -3.8730   -0.3900   -1.1850 hc        1 2VP      0.031367
     38 H15        -2.4470    0.4640   -1.9030 hc        1 2VP      0.031367
     39 H16        -2.6060    0.3230   -0.1030 hc        1 2VP      0.031367
     40 H17        -2.7160   -1.9270   -3.0720 ha        1 2VP      0.109000
     41 H18        -0.8330   -3.9090   -1.5500 ha        1 2VP      0.131000
     42 H19        -2.2390   -3.9150   -4.3250 ha        1 2VP      0.102000
     43 H20         0.1720   -7.2020   -2.9290 hc        1 2VP      0.039367
     44 H21        -0.7530   -6.2340   -1.7010 hc        1 2VP      0.039367
     45 H22         0.7310   -5.5280   -2.4650 hc        1 2VP      0.039367
     46 H23        -1.8330   -5.7590   -5.6850 ha        1 2VP      0.097000
@<TRIPOS>BOND
     1    1    2 1   
     2    1   11 1   
     3    1   24 1   
     4    1   25 1   
     5    2    3 1   
     6    2   26 1   
     7    2   27 1   
     8    3    4 1   
     9    3   28 1   
    10    3   29 1   
    11    4    5 ar  
    12    4   10 ar  
    13    5    6 ar  
    14    5   30 1   
    15    6    7 ar  
    16    6   31 1   
    17    7    8 1   
    18    7    9 ar  
    19    8   32 1   
    20    8   33 1   
    21    8   34 1   
    22    9   10 ar  
    23    9   35 1   
    24   10   11 1   
    25   11   12 2   
    26   12   13 1   
    27   12   36 1   
    28   13   14 1   
    29   13   15 2   
    30   14   37 1   
    31   14   38 1   
    32   14   39 1   
    33   15   16 1   
    34   15   40 1   
    35   16   17 2   
    36   16   41 1   
    37   17   18 1   
    38   17   42 1   
    39   18   19 1   
    40   18   20 2   
    41   19   43 1   
    42   19   44 1   
    43   19   45 1   
    44   20   21 1   
    45   20   46 1   
    46   21   22 1   
    47   21   23 1   
@<TRIPOS>SUBSTRUCTURE
     1 2VP         1 TEMP              0 ****  ****    0 ROOT
