@<TRIPOS>MOLECULE
molecule
   46    47     1     0     0
SMALL
bcc


@<TRIPOS>ATOM
      1 C2'          0.0000     0.0000     0.0000 c3         1 2VP      -0.035200
      2 C1'          1.5340     0.0000     0.0000 c3         1 2VP      -0.080400
      3 C18          2.0410     0.0000     1.4400 c3         1 2VP      -0.032100
      4 C5           1.4550    -1.1420     2.2240 ca         1 2VP      -0.080300
      5 C4           2.1160    -1.5930     3.3520 ca         1 2VP      -0.129000
      6 C3           1.5980    -2.6390     4.0930 ca         1 2VP      -0.136000
      7 C2           0.4130    -3.2480     3.7170 ca         1 2VP      -0.086300
      8 C7'         -0.1420    -4.3860     4.5360 c3         1 2VP      -0.045800
      9 C1          -0.2600    -2.8130     2.5950 ca         1 2VP      -0.120000
     10 C6           0.2610    -1.7560     1.8400 ca         1 2VP      -0.021800
     11 C7          -0.4520    -1.2990     0.6340 ce         1 2VP      -0.103400
     12 C8          -1.4770    -2.0140     0.1130 cf         1 2VP      -0.131000
     13 C9          -2.2380    -1.4850    -0.9500 cf         1 2VP      -0.085200
     14 C19         -2.9580    -0.1720    -0.7790 c3         1 2VP      -0.023900
     15 C10         -2.3210    -2.1600    -2.1300 ce         1 2VP      -0.444000
     16 C11         -1.6500    -3.3820    -2.2890 ce         1 2VP      -0.255000
     17 C12         -1.7320    -4.0580    -3.4730 cf         1 2VP       0.033000
     18 C13         -1.0610    -5.2800    -3.6310 cf         1 2VP      -0.183200
     19 C20         -0.2490    -5.8470    -2.4950 c3         1 2VP      -0.035900
     20 C14         -1.1440    -5.9560    -4.8130 ce         1 2VP      -0.068200
     21 C15         -0.6180    -7.2590    -4.9190 c          1 2VP       0.845800
     22 O2          -0.1460    -7.8070    -3.9390 o          1 2VP      -0.824300
     23 O1          -0.6390    -7.9010    -6.1060 o          1 2VP      -0.824300
     24 H1          -0.3670     0.0590    -1.0180 hc         1 2VP       0.052200
     25 H2          -0.3670     0.8390     0.5790 hc         1 2VP       0.052200
     26 H3           1.8830    -0.8990    -0.4930 hc         1 2VP       0.045700
     27 H4           1.8830     0.8990    -0.4930 hc         1 2VP       0.045700
     28 H5           1.7390     0.9280     1.9090 hc         1 2VP       0.045700
     29 H6           3.1180    -0.1120     1.4240 hc         1 2VP       0.045700
     30 H7           3.0440    -1.1250     3.6560 ha         1 2VP       0.121000
     31 H8           2.1240    -2.9850     4.9740 ha         1 2VP       0.121000
     32 H9           0.0210    -5.3200     4.0120 hc         1 2VP       0.040700
     33 H10         -1.2050    -4.2370     4.6870 hc         1 2VP       0.040700
     34 H11          0.3580    -4.4180     5.4960 hc         1 2VP       0.040700
     35 H12         -1.1870    -3.2880     2.2990 ha         1 2VP       0.139000
     36 H13         -1.7830    -2.9410     0.5830 ha         1 2VP       0.134000
     37 H14         -2.5170     0.5690    -1.4350 hc         1 2VP       0.033700
     38 H15         -4.0040    -0.2990    -1.0300 hc         1 2VP       0.033700
     39 H16         -2.8710     0.1570     0.2490 hc         1 2VP       0.033700
     40 H17         -1.2580    -2.2540    -2.3200 ha         1 2VP       0.344000
     41 H18         -1.0660    -3.7890    -1.4720 ha         1 2VP       0.112000
     42 H19         -2.3160    -3.6510    -4.2890 ha         1 2VP       0.138000
     43 H20          0.0910    -5.0400    -1.8560 hc         1 2VP       0.045033
     44 H21         -0.8610    -6.5300    -1.9180 hc         1 2VP       0.045033
     45 H22          0.6080    -6.3780    -2.8920 hc         1 2VP       0.045033
     46 H23         -1.7290    -5.5450    -5.6270 ha         1 2VP       0.112000
@<TRIPOS>BOND
     1    14    13 1   
     2    15    13 2   
     3    15    16 1   
     4    17    16 2   
     5    17    18 1   
     6    13    12 1   
     7    20    18 2   
     8    20    21 1   
     9    18    19 1   
    10    22    21 1   
    11     1     2 1   
    12     1    11 1   
    13    21    23 1   
    14    12    11 2   
    15     2     3 1   
    16    11    10 1   
    17     3     4 1   
    18    10     4 ar  
    19    10     9 ar  
    20     4     5 ar  
    21     9     7 ar  
    22     5     6 ar  
    23     7     6 ar  
    24     7     8 1   
    25     1    24 1   
    26     1    25 1   
    27     2    26 1   
    28     2    27 1   
    29     3    28 1   
    30     3    29 1   
    31     5    30 1   
    32     6    31 1   
    33     8    32 1   
    34     8    33 1   
    35     8    34 1   
    36     9    35 1   
    37    12    36 1   
    38    14    37 1   
    39    14    38 1   
    40    14    39 1   
    41    15    40 1   
    42    16    41 1   
    43    17    42 1   
    44    19    43 1   
    45    19    44 1   
    46    19    45 1   
    47    20    46 1   
@<TRIPOS>SUBSTRUCTURE
     1 2VP         1 TEMP              0 ****  ****    0 ROOT
