@<TRIPOS>MOLECULE
2VQ
   28    28     1     0     0
SMALL
bcc


@<TRIPOS>ATOM
      1 S1           0.0000     0.0000     0.0000 s6         1 2VQ       1.012800
      2 O1           1.4210     0.0000     0.0000 o          1 2VQ      -0.478300
      3 O2          -0.7780     0.0000     1.1900 o          1 2VQ      -0.478300
      4 N5          -0.4680     1.3320    -0.8640 n7         1 2VQ      -0.558100
      5 C1          -1.8910     1.6040    -1.0790 c3         1 2VQ       0.201800
      6 C2          -2.0690     3.0450    -1.5600 c3         1 2VQ      -0.069700
      7 N3          -5.4220     3.4830    -2.7280 nc         1 2VQ      -0.597000
      8 C3          -4.3750     3.8060    -0.8490 cd         1 2VQ      -0.781800
      9 C4          -5.5690     3.9010    -1.4630 cc         1 2VQ       0.476200
     10 C5          -4.1800     3.1310    -2.9230 cd         1 2VQ       0.249800
     11 C6          -3.6080     2.6050    -4.2130 c3         1 2VQ       0.002600
     12 N2          -3.4930     3.3170    -1.7750 na         1 2VQ       0.322100
     13 O4          -2.9420     4.0260     0.9880 o          1 2VQ      -0.445500
     14 O5          -4.9550     4.5880     1.2790 o          1 2VQ      -0.445500
     15 N1          -0.4680    -1.3340    -0.8630 nz         1 2VQ      -0.155500
     16 H1           0.2220     1.9560    -1.2350 hn         1 2VQ       0.396800
     17 H2          -2.4290     1.4650    -0.1490 h1         1 2VQ       0.027200
     18 H3          -2.2800     0.9230    -1.8260 h1         1 2VQ       0.027200
     19 H4          -1.6800     3.7260    -0.8120 h1         1 2VQ       0.071200
     20 H5          -1.5300     3.1840    -2.4890 h1         1 2VQ       0.071200
     21 H6          -6.4890     4.2550    -1.0130 h4         1 2VQ       0.034100
     22 H7          -2.7230     3.1720    -4.4730 hc         1 2VQ       0.019367
     23 H8          -3.3460     1.5610    -4.0930 hc         1 2VQ       0.019367
     24 H9          -4.3450     2.7030    -5.0010 hc         1 2VQ       0.019367
     25 H10         -0.2350    -1.2050    -1.8280 hn         1 2VQ       0.318800
     26 H11          0.0040    -2.1420    -0.5100 hn         1 2VQ       0.318800
     27 H13         -1.4570    -1.4590    -0.7730 hn         1 2VQ       0.318800
     28 N4          -4.0740     4.1610     0.5560 no         1 2VQ       1.102200
@<TRIPOS>BOND
     1     1     2 2   
     2     1     3 2   
     3     1     4 1   
     4     1    15 1   
     5     4     5 1   
     6     4    16 1   
     7     5     6 1   
     8     5    17 1   
     9     5    18 1   
    10     6    12 1   
    11     6    19 1   
    12     6    20 1   
    13     7     9 1   
    14     7    10 2   
    15     8     9 2   
    16     8    12 1   
    17     8    28 1   
    18     9    21 1   
    19    10    11 1   
    20    10    12 1   
    21    11    22 1   
    22    11    23 1   
    23    11    24 1   
    24    13    28 1   
    25    14    28 1   
    26    15    25 1   
    27    15    26 1   
    28    15    27 1   
@<TRIPOS>SUBSTRUCTURE
     1 2VQ         1 TEMP              0 ****  ****    0 ROOT
