@<TRIPOS>MOLECULE
2VR
   46    47     1     0     0
SMALL
bcc


@<TRIPOS>ATOM
      1 C2'        -0.9310   -0.4220    0.7000 c3        1 2VR     -0.039200
      2 C1'         0.2540    0.5150    0.5790 c3        1 2VR     -0.072400
      3 C18         1.0250    0.6120    1.8790 c3        1 2VR     -0.032100
      4 C5          1.0550   -0.6360    2.6950 ca        1 2VR     -0.065300
      5 C4          1.8450   -0.6240    3.8490 ca        1 2VR     -0.146000
      6 C3          1.8570   -1.7190    4.7090 ca        1 2VR     -0.133000
      7 C2          1.0540   -2.8190    4.4310 ca        1 2VR     -0.142000
      8 C1          0.2590   -2.8570    3.2770 ca        1 2VR     -0.061300
      9 C8'        -0.6160   -4.0390    3.0860 c3        1 2VR     -0.059800
     10 C6          0.2900   -1.7790    2.3730 ca        1 2VR     -0.024800
     11 C7         -0.4430   -1.7750    1.1040 ce        1 2VR     -0.084400
     12 C8         -0.5850   -2.8590    0.3210 cf        1 2VR     -0.078000
     13 C9         -1.2290   -2.8820   -0.9890 cf        1 2VR     -0.160200
     14 C19        -0.4200   -2.3290   -2.1060 c3        1 2VR     -0.040900
     15 C10        -2.4450   -3.4240   -1.2050 ce        1 2VR     -0.063000
     16 C11        -3.2850   -3.9790   -0.1750 ce        1 2VR     -0.218000
     17 C12        -4.4120   -4.6940   -0.3510 cf        1 2VR     -0.037000
     18 C13        -5.0460   -5.1520   -1.5740 cf        1 2VR     -0.164200
     19 C20        -4.2040   -5.4650   -2.7560 c3        1 2VR     -0.049900
     20 C14        -6.3820   -5.3290   -1.6020 ce        1 2VR     -0.136200
     21 C15        -7.1940   -5.7890   -2.7940 c         1 2VR      0.894800
     22 O1         -6.8880   -6.8760   -3.3620 o         1 2VR     -0.830300
     23 O2         -8.1690   -5.0600   -3.1330 o         1 2VR     -0.830300
     24 H1         -1.6480   -0.0370    1.4720 hc        1 2VR      0.056200
     25 H2         -1.4800   -0.4730   -0.2770 hc        1 2VR      0.056200
     26 H3          0.9320    0.1450   -0.2350 hc        1 2VR      0.039200
     27 H4         -0.1000    1.5360    0.2800 hc        1 2VR      0.039200
     28 H5          2.0790    0.9330    1.6580 hc        1 2VR      0.042200
     29 H6          0.5650    1.4180    2.5160 hc        1 2VR      0.042200
     30 H7          2.4540    0.2620    4.0790 ha        1 2VR      0.122000
     31 H8          2.4880   -1.7070    5.6090 ha        1 2VR      0.122000
     32 H9          1.0350   -3.6720    5.1260 ha        1 2VR      0.125000
     33 H10        -1.5310   -3.7750    2.4990 hc        1 2VR      0.049033
     34 H11        -0.0660   -4.8480    2.5420 hc        1 2VR      0.049033
     35 H12        -0.9410   -4.4490    4.0750 hc        1 2VR      0.049033
     36 H13        -0.1750   -3.8360    0.6360 ha        1 2VR      0.125000
     37 H14         0.4580   -2.9940   -2.3070 hc        1 2VR      0.032700
     38 H15        -1.0220   -2.2500   -3.0430 hc        1 2VR      0.032700
     39 H16        -0.0330   -1.3130   -1.8430 hc        1 2VR      0.032700
     40 H17        -2.8550   -3.4370   -2.2320 ha        1 2VR      0.138000
     41 H18        -2.9580   -3.7650    0.8590 ha        1 2VR      0.104000
     42 H19        -4.9630   -4.9870    0.5670 ha        1 2VR      0.101000
     43 H20        -4.6620   -6.3150   -3.3270 hc        1 2VR      0.040033
     44 H21        -4.1470   -4.5830   -3.4420 hc        1 2VR      0.040033
     45 H22        -3.1670   -5.7450   -2.4480 hc        1 2VR      0.040033
     46 H23        -6.9950   -5.1030   -0.7140 ha        1 2VR      0.098000
@<TRIPOS>BOND
     1    1    2 1   
     2    1   11 1   
     3    1   24 1   
     4    1   25 1   
     5    2    3 1   
     6    2   26 1   
     7    2   27 1   
     8    3    4 1   
     9    3   28 1   
    10    3   29 1   
    11    4    5 ar  
    12    4   10 ar  
    13    5    6 ar  
    14    5   30 1   
    15    6    7 ar  
    16    6   31 1   
    17    7    8 ar  
    18    7   32 1   
    19    8    9 1   
    20    8   10 ar  
    21    9   33 1   
    22    9   34 1   
    23    9   35 1   
    24   10   11 1   
    25   11   12 2   
    26   12   13 1   
    27   12   36 1   
    28   13   14 1   
    29   13   15 2   
    30   14   37 1   
    31   14   38 1   
    32   14   39 1   
    33   15   16 1   
    34   15   40 1   
    35   16   17 2   
    36   16   41 1   
    37   17   18 1   
    38   17   42 1   
    39   18   19 1   
    40   18   20 2   
    41   19   43 1   
    42   19   44 1   
    43   19   45 1   
    44   20   21 1   
    45   20   46 1   
    46   21   22 1   
    47   21   23 1   
@<TRIPOS>SUBSTRUCTURE
     1 2VR         1 TEMP              0 ****  ****    0 ROOT
