@<TRIPOS>MOLECULE
molecule
   46    47     1     0     0
SMALL
bcc


@<TRIPOS>ATOM
      1 C2'          0.0000     0.0000     0.0000 c3         1 2VR      -0.033200
      2 C1'          1.5340     0.0000     0.0000 c3         1 2VR      -0.080400
      3 C18          2.0410     0.0000     1.4390 c3         1 2VR      -0.032100
      4 C5           1.4550    -1.1430     2.2230 ca         1 2VR      -0.073300
      5 C4           2.1150    -1.5940     3.3510 ca         1 2VR      -0.138000
      6 C3           1.5980    -2.6410     4.0910 ca         1 2VR      -0.136000
      7 C2           0.4130    -3.2500     3.7150 ca         1 2VR      -0.129000
      8 C1          -0.2600    -2.8150     2.5930 ca         1 2VR      -0.073300
      9 C8'         -1.5500    -3.4750     2.1820 c3         1 2VR      -0.059800
     10 C6           0.2610    -1.7580     1.8390 ca         1 2VR      -0.028800
     11 C7          -0.4520    -1.3000     0.6340 ce         1 2VR      -0.092400
     12 C8          -1.4780    -2.0150     0.1110 cf         1 2VR      -0.183000
     13 C9          -2.6980    -1.3800    -0.1900 cf         1 2VR      -0.079200
     14 C19         -2.8540     0.1010     0.0410 c3         1 2VR      -0.034900
     15 C10         -3.7380    -2.1050    -0.6910 ce         1 2VR      -0.393000
     16 C11         -3.5930    -3.4840    -0.9060 ce         1 2VR      -0.256000
     17 C12         -4.6350    -4.2110    -1.4070 cf         1 2VR       0.014000
     18 C13         -4.4890    -5.5890    -1.6230 cf         1 2VR      -0.179200
     19 C20         -3.1830    -6.2690    -1.3000 c3         1 2VR      -0.033900
     20 C14         -5.5290    -6.3150    -2.1230 ce         1 2VR      -0.069200
     21 C15         -5.4390    -7.7200    -2.1960 c          1 2VR       0.845800
     22 O1          -4.4810    -8.2940    -1.7100 o          1 2VR      -0.825300
     23 O2          -6.4150    -8.4290    -2.8040 o          1 2VR      -0.825300
     24 H1          -0.3670     0.0600    -1.0180 hc         1 2VR       0.051700
     25 H2          -0.3670     0.8380     0.5800 hc         1 2VR       0.051700
     26 H3           1.8830    -0.8990    -0.4930 hc         1 2VR       0.044700
     27 H4           1.8830     0.8990    -0.4930 hc         1 2VR       0.044700
     28 H5           1.7390     0.9280     1.9090 hc         1 2VR       0.045200
     29 H6           3.1180    -0.1120     1.4230 hc         1 2VR       0.045200
     30 H7           3.0440    -1.1260     3.6550 ha         1 2VR       0.120000
     31 H8           2.1240    -2.9860     4.9730 ha         1 2VR       0.120000
     32 H9           0.0160    -4.0700     4.3020 ha         1 2VR       0.128000
     33 H10         -1.3920    -4.0390     1.2710 hc         1 2VR       0.055033
     34 H11         -2.3050    -2.7170     2.0110 hc         1 2VR       0.055033
     35 H12         -1.8800    -4.1430     2.9680 hc         1 2VR       0.055033
     36 H13         -1.6700    -2.9620     0.6020 ha         1 2VR       0.151000
     37 H14         -2.4280     0.3630     1.0010 hc         1 2VR       0.036033
     38 H15         -3.9060     0.3590     0.0300 hc         1 2VR       0.036033
     39 H16         -2.3410     0.6440    -0.7430 hc         1 2VR       0.036033
     40 H17         -3.7850    -2.8540     0.0900 ha         1 2VR       0.318000
     41 H18         -2.6540    -3.9720    -0.6750 ha         1 2VR       0.119000
     42 H19         -5.5740    -3.7230    -1.6390 ha         1 2VR       0.137000
     43 H20         -2.9900    -7.0450    -2.0310 hc         1 2VR       0.044033
     44 H21         -3.2410    -6.7110    -0.3120 hc         1 2VR       0.044033
     45 H22         -2.3810    -5.5420    -1.3240 hc         1 2VR       0.044033
     46 H23         -6.4670    -5.8240    -2.3540 ha         1 2VR       0.112000
@<TRIPOS>BOND
     1    14    13 1   
     2    15    13 2   
     3    15    16 1   
     4    13    12 1   
     5    17    16 2   
     6    17    18 1   
     7    20    18 2   
     8    20    21 1   
     9     1     2 1   
    10     1    11 1   
    11    18    19 1   
    12    22    21 1   
    13     2     3 1   
    14    21    23 1   
    15    12    11 2   
    16    11    10 1   
    17     3     4 1   
    18    10     4 ar  
    19    10     8 ar  
    20     4     5 ar  
    21     9     8 1   
    22     8     7 ar  
    23     5     6 ar  
    24     7     6 ar  
    25     1    24 1   
    26     1    25 1   
    27     2    26 1   
    28     2    27 1   
    29     3    28 1   
    30     3    29 1   
    31     5    30 1   
    32     6    31 1   
    33     7    32 1   
    34     9    33 1   
    35     9    34 1   
    36     9    35 1   
    37    12    36 1   
    38    14    37 1   
    39    14    38 1   
    40    14    39 1   
    41    15    40 1   
    42    16    41 1   
    43    17    42 1   
    44    19    43 1   
    45    19    44 1   
    46    19    45 1   
    47    20    46 1   
@<TRIPOS>SUBSTRUCTURE
     1 2VR         1 TEMP              0 ****  ****    0 ROOT
