@<TRIPOS>MOLECULE
2VS
   15    14     1     0     0
SMALL
bcc


@<TRIPOS>ATOM
      1 CA6         0.0960   -0.0940   -0.0820 c         1 2VS      0.577100
      2 OA4         1.3260    0.0180   -0.2050 o         1 2VS     -0.600100
      3 CA5        -0.6290    0.1310    1.1510 ce        1 2VS     -0.380200
      4 CA4        -1.9730   -0.0060    1.2270 cf        1 2VS      0.038000
      5 CA3        -2.7390    0.2020    2.4120 cf        1 2VS     -0.297000
      6 CA2        -4.0900    0.0640    2.4830 ce        1 2VS      0.089900
      7 OA3        -4.7970   -0.2950    1.3720 oh        1 2VS     -0.536100
      8 CA1        -4.9290    0.2840    3.7490 c         1 2VS      0.887800
      9 OA2        -6.1710    0.1000    3.5850 o         1 2VS     -0.802300
     10 OA1        -4.3600    0.6150    4.8140 o         1 2VS     -0.802300
     11 H1         -0.5230   -0.3870   -0.9650 h4        1 2VS     -0.037800
     12 H4         -0.0330    0.4190    2.0300 ha        1 2VS      0.139000
     13 H5         -2.5470   -0.2980    0.3250 ha        1 2VS      0.113000
     14 H6         -2.2180    0.4940    3.3390 ha        1 2VS      0.157000
     15 H7         -5.7410   -0.3380    1.6350 ho        1 2VS      0.455000
@<TRIPOS>BOND
     1    1    2 2   
     2    1    3 1   
     3    1   11 1   
     4    3    4 2   
     5    3   12 1   
     6    4    5 1   
     7    4   13 1   
     8    5    6 2   
     9    5   14 1   
    10    6    7 1   
    11    6    8 1   
    12    7   15 1   
    13    8    9 1   
    14    8   10 1   
@<TRIPOS>SUBSTRUCTURE
     1 2VS         1 TEMP              0 ****  ****    0 ROOT
