@<TRIPOS>MOLECULE
molecule
   15    14     1     0     0
SMALL
bcc


@<TRIPOS>ATOM
      1 CA6          0.0000     0.0000     0.0000 c          1 2VS       0.575100
      2 OA4          1.2140     0.0000     0.0000 o          1 2VS      -0.588100
      3 CA5         -0.7040     0.0000     1.2220 ce         1 2VS      -0.372200
      4 CA4         -2.0640     0.0070     1.2230 cf         1 2VS      -0.040000
      5 CA3         -2.7690     0.0070     2.4450 cf         1 2VS      -0.389000
      6 CA2         -4.1280     0.0130     2.4460 ce         1 2VS       0.218900
      7 OA3         -4.8060     0.0190     1.2730 oh         1 2VS      -0.555100
      8 CA1         -4.8650     0.0130     3.7250 c          1 2VS       0.837800
      9 OA2         -6.2120     0.0200     3.7260 o          1 2VS      -0.784800
     10 OA1         -4.2560     0.0080     4.7770 o          1 2VS      -0.784800
     11 H1          -0.5420     0.0360    -0.9370 h4         1 2VS      -0.040800
     12 H4          -0.1620    -0.0050     2.1600 ha         1 2VS       0.165000
     13 H5          -2.6060     0.0120     0.2850 ha         1 2VS       0.092000
     14 H6          -2.6290    -0.8670     1.8200 ha         1 2VS       0.227000
     15 H7          -5.3280     0.8020     1.2160 ho         1 2VS       0.438000
@<TRIPOS>BOND
     1     2     1 2
     2     1     3 1
     3     3     4 2
     4     4     5 1
     5     5     6 2
     6     7     6 1
     7     6     8 1
     8     8    10 1
     9     8     9 1
    10     1    11 1
    11     3    12 1
    12     4    13 1
    13     5    14 1
    14     7    15 1
@<TRIPOS>SUBSTRUCTURE
     1 2VS         1 TEMP              0 ****  ****    0 ROOT
