@<TRIPOS>MOLECULE
2VT
   40    43     1     0     0
SMALL
bcc


@<TRIPOS>ATOM
      1 C1           0.0000     0.0000     0.0000 ca         1 2VT      -0.108000
      2 C2           1.3940     0.0000     0.0000 ca         1 2VT      -0.096000
      3 C3           2.1110     0.0000     1.1550 ca         1 2VT      -0.060000
      4 C4           1.4350     0.0010     2.3910 ca         1 2VT      -0.075000
      5 C5          -0.0360     0.0010     2.3850 ca         1 2VT      -0.064000
      6 C6          -0.7130     0.0060     1.1590 ca         1 2VT      -0.047000
      7 C7          -0.3900     0.0020     3.7400 cc         1 2VT      -0.439300
      8 N8           0.7770     0.0010     4.4410 na         1 2VT       0.658800
      9 N9           1.7990     0.0000     3.6620 nc         1 2VT      -0.413400
     10 C11         -1.7460     0.0030     4.2930 c          1 2VT       0.623300
     11 O12         -2.7080     0.0040     3.5460 o          1 2VT      -0.631100
     12 N13         -1.9300     0.0030     5.6280 ns         1 2VT       0.012900
     13 C14         -3.2330     0.0040     6.1590 cc         1 2VT      -0.316700
     14 C15         -4.4250     0.0040     5.4210 cc         1 2VT       0.401200
     15 N16         -5.4280     0.0040     6.2610 nd         1 2VT      -0.643800
     16 N17         -4.9150     0.0050     7.5640 na         1 2VT       0.498400
     17 C18         -3.5590    -0.0020     7.4760 cd         1 2VT      -0.288300
     18 C19         -5.7000     0.0020     8.8010 c3         1 2VT       0.003600
     19 C20         -6.6510     1.1700     8.7940 ca         1 2VT      -0.113300
     20 C21         -7.9210     1.0240     8.2610 ca         1 2VT      -0.046000
     21 C22         -8.8010     2.0910     8.2510 ca         1 2VT      -0.099000
     22 C23         -8.4180     3.3100     8.7740 ca         1 2VT      -0.059000
     23 C24         -7.1390     3.4640     9.3130 ca         1 2VT       0.025000
     24 C25         -6.2580     2.3810     9.3240 ca         1 2VT      -0.057000
     25 C26         -6.7360     4.7260     9.8570 cg         1 2VT       0.229800
     26 N27         -6.3990     5.7190    10.2930 n1         1 2VT      -0.377800
     27 H1          -0.5420    -0.0000    -0.9380 ha         1 2VT       0.103000
     28 H2           1.9360    -0.0040    -0.9380 ha         1 2VT       0.101000
     29 H3           3.1930     0.0000     1.1210 ha         1 2VT       0.109000
     30 H4          -1.7960     0.0050     1.1290 ha         1 2VT       0.127000
     31 H5           0.8650     0.0050     5.4380 hn         1 2VT       0.124700
     32 H6          -1.1400     0.0270     6.2420 hn         1 2VT       0.144500
     33 H7          -4.5060     0.0020     4.3410 h4         1 2VT       0.058100
     34 H8          -2.8610    -0.0080     8.3050 h4         1 2VT       0.145000
     35 H9          -6.5980    -0.5860     8.6570 h1         1 2VT       0.053200
     36 H10         -5.1100    -0.4280     9.6010 h1         1 2VT       0.053200
     37 H11         -8.2290     0.0710     7.8490 ha         1 2VT       0.119000
     38 H12         -9.7930     1.9720     7.8330 ha         1 2VT       0.113000
     39 H13         -9.1090     4.1440     8.7650 ha         1 2VT       0.114000
     40 H14         -5.2660     2.4920     9.7450 ha         1 2VT       0.113000
@<TRIPOS>BOND
     1     1     2 ar  
     2     1     6 ar  
     3     1    27 1   
     4     2     3 ar  
     5     2    28 1   
     6     3     4 ar  
     7     3    29 1   
     8     4     5 ar  
     9     4     9 2   
    10     5     6 ar  
    11     5     7 2   
    12     6    30 1   
    13     7     8 1   
    14     7    10 1   
    15     8     9 1   
    16     8    31 1   
    17    10    11 2   
    18    10    12 1   
    19    12    13 1   
    20    12    32 1   
    21    13    14 1   
    22    13    17 2   
    23    14    15 2   
    24    14    33 1   
    25    15    16 1   
    26    16    17 1   
    27    16    18 1   
    28    17    34 1   
    29    18    19 1   
    30    18    35 1   
    31    18    36 1   
    32    19    20 ar  
    33    19    24 ar  
    34    20    21 ar  
    35    20    37 1   
    36    21    22 ar  
    37    21    38 1   
    38    22    23 ar  
    39    22    39 1   
    40    23    24 ar  
    41    23    25 1   
    42    24    40 1   
    43    25    26 3   
@<TRIPOS>SUBSTRUCTURE
     1 2VT         1 TEMP              0 ****  ****    0 ROOT
