@<TRIPOS>MOLECULE
molecule
   40    43     1     0     0
SMALL
bcc


@<TRIPOS>ATOM
      1 C1           0.0000     0.0000     0.0000 ca         1 2VT      -0.132000
      2 C2           1.3940     0.0000     0.0000 ca         1 2VT      -0.117000
      3 C3           2.1110     0.0000     1.1550 ca         1 2VT      -0.087000
      4 C4           1.4350     0.0010     2.3910 ca         1 2VT      -0.076000
      5 C5          -0.0360     0.0010     2.3850 ca         1 2VT      -0.074000
      6 C6          -0.7130     0.0060     1.1590 ca         1 2VT      -0.075000
      7 C7          -0.3900     0.0020     3.7400 cc         1 2VT      -0.217300
      8 N8           0.7770     0.0010     4.4410 na         1 2VT       0.096800
      9 N9           1.7990     0.0000     3.6620 nc         1 2VT      -0.263400
     10 C11         -1.7460     0.0030     4.2930 c          1 2VT       0.709300
     11 O12         -2.7080     0.0040     3.5460 o          1 2VT      -0.589100
     12 N13         -1.9300     0.0030     5.6280 ns         1 2VT      -0.448100
     13 C14         -3.2330     0.0040     6.1590 cd         1 2VT      -0.159700
     14 C15         -4.4250     0.0040     5.4210 cd         1 2VT       0.346200
     15 N16         -5.4280     0.0040     6.2610 nc         1 2VT      -0.504800
     16 N17         -4.9150     0.0050     7.5640 na         1 2VT       0.069400
     17 C18         -3.5590    -0.0020     7.4760 cc         1 2VT      -0.157300
     18 C19         -5.7000     0.0020     8.8010 c3         1 2VT       0.092600
     19 C20         -6.6510     1.1700     8.7940 ca         1 2VT      -0.109300
     20 C21         -7.9210     1.0240     8.2610 ca         1 2VT      -0.074000
     21 C22         -8.8010     2.0910     8.2510 ca         1 2VT      -0.133000
     22 C23         -8.4180     3.3100     8.7740 ca         1 2VT      -0.078000
     23 C24         -7.1390     3.4640     9.3130 ca         1 2VT      -0.024000
     24 C25         -6.2580     2.3810     9.3240 ca         1 2VT      -0.072000
     25 C26         -6.7360     4.7260     9.8570 cg         1 2VT       0.238800
     26 N27         -6.3990     5.7190    10.2930 n1         1 2VT      -0.360800
     27 H1          -0.5420    -0.0000    -0.9380 ha         1 2VT       0.133000
     28 H2           1.9360    -0.0040    -0.9380 ha         1 2VT       0.132000
     29 H3           3.1930     0.0000     1.1210 ha         1 2VT       0.140000
     30 H4          -1.7960     0.0050     1.1290 ha         1 2VT       0.155000
     31 H5           0.8650     0.0050     5.4380 hn         1 2VT       0.329700
     32 H6          -1.1400     0.0270     6.2420 hn         1 2VT       0.310500
     33 H7          -4.5060     0.0020     4.3410 h4         1 2VT       0.093100
     34 H8          -2.8610    -0.0080     8.3050 h4         1 2VT       0.166000
     35 H9          -6.5980    -0.5860     8.6570 h1         1 2VT       0.081700
     36 H10         -5.1100    -0.4280     9.6010 h1         1 2VT       0.081700
     37 H11         -8.2290     0.0710     7.8490 ha         1 2VT       0.146000
     38 H12         -9.7930     1.9720     7.8330 ha         1 2VT       0.143000
     39 H13         -9.1090     4.1440     8.7650 ha         1 2VT       0.144000
     40 H14         -5.2660     2.4920     9.7450 ha         1 2VT       0.142000
@<TRIPOS>BOND
     1    26    25 3   
     2    25    23 1   
     3    22    23 ar  
     4    22    21 ar  
     5    23    24 ar  
     6    21    20 ar  
     7    24    19 ar  
     8    20    19 ar  
     9    19    18 1   
    10    18    16 1   
    11    16    17 1   
    12    16    15 1   
    13    17    13 2   
    14    15    14 2   
    15    13    14 1   
    16    13    12 1   
    17    12    10 1   
    18    10    11 2   
    19    10     7 1   
    20     8     7 1   
    21     8     9 1   
    22     7     5 2   
    23     9     4 2   
    24     5     4 ar  
    25     5     6 ar  
    26     4     3 ar  
    27     6     1 ar  
    28     3     2 ar  
    29     1     2 ar  
    30     1    27 1   
    31     2    28 1   
    32     3    29 1   
    33     6    30 1   
    34     8    31 1   
    35    12    32 1   
    36    14    33 1   
    37    17    34 1   
    38    18    35 1   
    39    18    36 1   
    40    20    37 1   
    41    21    38 1   
    42    22    39 1   
    43    24    40 1   
@<TRIPOS>SUBSTRUCTURE
     1 2VT         1 TEMP              0 ****  ****    0 ROOT
