@<TRIPOS>MOLECULE
molecule
   47    51     1     0     0
SMALL
bcc


@<TRIPOS>ATOM
      1 C1           0.0000     0.0000     0.0000 ca         1 2VU      -0.135000
      2 C2           1.3830     0.0000     0.0000 ca         1 2VU      -0.068000
      3 C3           2.0810     0.0000     1.1950 ca         1 2VU      -0.118300
      4 C4           1.4010    -0.0020     2.3950 ca         1 2VU      -0.072000
      5 C5           0.0050    -0.0030     2.4010 ca         1 2VU      -0.024000
      6 C6          -0.6930     0.0040     1.1920 ca         1 2VU      -0.079000
      7 C7          -0.7090    -0.0040     3.6430 cg         1 2VU       0.239800
      8 N8          -1.2610    -0.0160     4.6360 n1         1 2VU      -0.362800
      9 C9           3.5880    -0.0010     1.1850 c3         1 2VU       0.135600
     10 N10          4.0760     1.3810     1.1830 na         1 2VU       0.058400
     11 C11          4.9460     1.9230     2.0740 cc         1 2VU      -0.159300
     12 C12          5.1390     3.2200     1.7220 cd         1 2VU      -0.153700
     13 C13          4.3630     3.4760     0.5830 cd         1 2VU       0.342200
     14 N14          3.7340     2.3750     0.2580 nc         1 2VU      -0.505800
     15 N15          5.9690     4.1430     2.3840 ns         1 2VU      -0.436100
     16 C16          6.0700     5.4070     1.9250 c          1 2VU       0.636800
     17 O17          5.4420     5.7490     0.9420 o          1 2VU      -0.605100
     18 C18          6.9390     6.3750     2.6180 cd         1 2VU       0.287900
     19 C19          7.1590     7.7800     2.2520 ca         1 2VU      -0.185900
     20 C20          6.6950     8.6260     1.2480 ca         1 2VU      -0.046000
     21 C21          7.1190     9.9220     1.2020 ca         1 2VU      -0.156000
     22 C22          8.0190    10.4070     2.1580 ca         1 2VU       0.049000
     23 C23          8.4920     9.5770     3.1640 ca         1 2VU      -0.146000
     24 C24          8.0660     8.2560     3.2210 ca         1 2VU      -0.069200
     25 N25          8.3220     7.1960     4.0520 na         1 2VU       0.029900
     26 N27          7.6690     6.1520     3.6900 nc         1 2VU      -0.509100
     27 C28          8.4720    11.8200     2.0940 cd         1 2VU      -0.268300
     28 C29          8.0900    12.7480     1.1690 cc         1 2VU      -0.093300
     29 N30          8.7250    13.9010     1.4630 na         1 2VU      -0.038600
     30 N32          9.5200    13.6860     2.5950 nc         1 2VU      -0.508800
     31 C33          9.3680    12.4470     2.9810 cd         1 2VU       0.349200
     32 H1          -0.5420     0.0000    -0.9380 ha         1 2VU       0.141000
     33 H2           1.9250    -0.0030    -0.9380 ha         1 2VU       0.146000
     34 H3           1.9490    -0.0020     3.3290 ha         1 2VU       0.141000
     35 H4          -1.7760     0.0040     1.1890 ha         1 2VU       0.143000
     36 H5           3.9550    -0.5030     2.0720 h1         1 2VU       0.065200
     37 H6           3.9440    -0.5200     0.3030 h1         1 2VU       0.065200
     38 H7           5.4020     1.4090     2.9120 h4         1 2VU       0.168000
     39 H8           4.2970     4.4200     0.0560 h4         1 2VU       0.092100
     40 H9           6.5220     3.8490     3.1640 hn         1 2VU       0.334500
     41 H10          5.9980     8.2540     0.5050 ha         1 2VU       0.159000
     42 H11          6.7600    10.5830     0.4220 ha         1 2VU       0.131000
     43 H12          9.1880     9.9600     3.9000 ha         1 2VU       0.131000
     44 H13          8.9300     7.2060     4.8470 hn         1 2VU       0.335700
     45 H14          7.4010    12.5840     0.3500 h4         1 2VU       0.176000
     46 H15          8.6430    14.7620     0.9600 hn         1 2VU       0.332700
     47 H16          9.8510    11.9840     3.8330 h4         1 2VU       0.050100
@<TRIPOS>BOND
     1     8     7 3   
     2     7     5 1   
     3    25    26 1   
     4    25    24 1   
     5    26    18 2   
     6     5     4 ar  
     7     5     6 ar  
     8     4     3 ar  
     9    24    23 ar  
    10    24    19 ar  
    11    23    22 ar  
    12     6     1 ar  
    13    18    19 1   
    14    18    16 1   
    15    15    16 1   
    16    15    12 1   
    17    28    29 1   
    18    28    27 2   
    19    11    12 2   
    20    11    10 1   
    21    19    20 ar  
    22     3     9 1   
    23     3     2 ar  
    24    16    17 2   
    25    22    27 1   
    26    22    21 ar  
    27    29    30 1   
    28    12    13 1   
    29     9    10 1   
    30    27    31 1   
    31     1     2 ar  
    32    10    14 1   
    33    20    21 ar  
    34    30    31 2   
    35    13    14 2   
    36     1    32 1   
    37     2    33 1   
    38     4    34 1   
    39     6    35 1   
    40     9    36 1   
    41     9    37 1   
    42    11    38 1   
    43    13    39 1   
    44    15    40 1   
    45    20    41 1   
    46    21    42 1   
    47    23    43 1   
    48    25    44 1   
    49    28    45 1   
    50    29    46 1   
    51    31    47 1   
@<TRIPOS>SUBSTRUCTURE
     1 2VU         1 TEMP              0 ****  ****    0 ROOT
