@<TRIPOS>MOLECULE
2VU
   47    51     1     0     0
SMALL
bcc


@<TRIPOS>ATOM
      1 C1           0.0000     0.0000     0.0000 ca         1 2VU      -0.102000
      2 C2           1.3830     0.0000     0.0000 ca         1 2VU      -0.038000
      3 C3           2.0810     0.0000     1.1950 ca         1 2VU      -0.126300
      4 C4           1.4010    -0.0020     2.3950 ca         1 2VU      -0.055000
      5 C5           0.0050    -0.0030     2.4010 ca         1 2VU       0.024000
      6 C6          -0.6930     0.0040     1.1920 ca         1 2VU      -0.060000
      7 C7          -0.7090    -0.0040     3.6430 cg         1 2VU       0.231800
      8 N8          -1.2610    -0.0160     4.6360 n1         1 2VU      -0.380800
      9 C9           3.5880    -0.0010     1.1850 c3         1 2VU       0.062600
     10 N10          4.0760     1.3810     1.1830 na         1 2VU       0.480400
     11 C11          4.9460     1.9230     2.0740 cc         1 2VU      -0.291300
     12 C12          5.1390     3.2200     1.7220 cd         1 2VU      -0.310700
     13 C13          4.3630     3.4760     0.5830 cd         1 2VU       0.395200
     14 N14          3.7340     2.3750     0.2580 nc         1 2VU      -0.643800
     15 N15          5.9690     4.1430     2.3840 ns         1 2VU       0.031900
     16 C16          6.0700     5.4070     1.9250 c          1 2VU       0.533800
     17 O17          5.4420     5.7490     0.9420 o          1 2VU      -0.655100
     18 C18          6.9390     6.3750     2.6180 cc         1 2VU       0.268900
     19 C19          7.1590     7.7800     2.2520 ca         1 2VU      -0.172900
     20 C20          6.6950     8.6260     1.2480 ca         1 2VU      -0.015000
     21 C21          7.1190     9.9220     1.2020 ca         1 2VU      -0.132000
     22 C22          8.0190    10.4070     2.1580 ca         1 2VU       0.055000
     23 C23          8.4920     9.5770     3.1640 ca         1 2VU      -0.110000
     24 C24          8.0660     8.2560     3.2210 ca         1 2VU      -0.260200
     25 N25          8.3220     7.1960     4.0520 na         1 2VU       0.539900
     26 N27          7.6690     6.1520     3.6900 nd         1 2VU      -0.635100
     27 C28          8.4720    11.8200     2.0940 cc         1 2VU      -0.271300
     28 C29          8.0900    12.7480     1.1690 cd         1 2VU      -0.252300
     29 N30          8.7250    13.9010     1.4630 na         1 2VU       0.460400
     30 N32          9.5200    13.6860     2.5950 nd         1 2VU      -0.663800
     31 C33          9.3680    12.4470     2.9810 cc         1 2VU       0.408200
     32 H1          -0.5420     0.0000    -0.9380 ha         1 2VU       0.112000
     33 H2           1.9250    -0.0030    -0.9380 ha         1 2VU       0.117000
     34 H3           1.9490    -0.0020     3.3290 ha         1 2VU       0.113000
     35 H4          -1.7760     0.0040     1.1890 ha         1 2VU       0.113000
     36 H5           3.9550    -0.5030     2.0720 h1         1 2VU       0.032200
     37 H6           3.9440    -0.5200     0.3030 h1         1 2VU       0.032200
     38 H7           5.4020     1.4090     2.9120 h4         1 2VU       0.146000
     39 H8           4.2970     4.4200     0.0560 h4         1 2VU       0.057100
     40 H9           6.5220     3.8490     3.1640 hn         1 2VU       0.171500
     41 H10          5.9980     8.2540     0.5050 ha         1 2VU       0.129000
     42 H11          6.7600    10.5830     0.4220 ha         1 2VU       0.107000
     43 H12          9.1880     9.9600     3.9000 ha         1 2VU       0.109000
     44 H13          8.9300     7.2060     4.8470 hn         1 2VU       0.139700
     45 H14          7.4010    12.5840     0.3500 h4         1 2VU       0.151000
     46 H15          8.6430    14.7620     0.9600 hn         1 2VU       0.147700
     47 H16          9.8510    11.9840     3.8330 h4         1 2VU       0.005100
@<TRIPOS>BOND
     1     1     2 ar  
     2     1     6 ar  
     3     1    32 1   
     4     2     3 ar  
     5     2    33 1   
     6     3     4 ar  
     7     3     9 1   
     8     4     5 ar  
     9     4    34 1   
    10     5     6 ar  
    11     5     7 1   
    12     6    35 1   
    13     7     8 3   
    14     9    10 1   
    15     9    36 1   
    16     9    37 1   
    17    10    11 1   
    18    10    14 1   
    19    11    12 2   
    20    11    38 1   
    21    12    13 1   
    22    12    15 1   
    23    13    14 2   
    24    13    39 1   
    25    15    16 1   
    26    15    40 1   
    27    16    17 2   
    28    16    18 1   
    29    18    19 1   
    30    18    26 2   
    31    19    20 ar  
    32    19    24 ar  
    33    20    21 ar  
    34    20    41 1   
    35    21    22 ar  
    36    21    42 1   
    37    22    23 ar  
    38    22    27 1   
    39    23    24 ar  
    40    23    43 1   
    41    24    25 1   
    42    25    26 1   
    43    25    44 1   
    44    27    28 2   
    45    27    31 1   
    46    28    29 1   
    47    28    45 1   
    48    29    30 1   
    49    29    46 1   
    50    30    31 2   
    51    31    47 1   
@<TRIPOS>SUBSTRUCTURE
     1 2VU         1 TEMP              0 ****  ****    0 ROOT
