@<TRIPOS>MOLECULE
2VV
   60    64     1     0     0
SMALL
bcc


@<TRIPOS>ATOM
      1 C1           0.0000     0.0000     0.0000 c3         1 2VV       0.181100
      2 N2           1.4700     0.0000     0.0000 n3         1 2VV      -0.547600
      3 C3           1.9960     0.0000     1.3710 c3         1 2VV       0.181100
      4 C4           1.9960    -1.1380    -0.7660 c3         1 2VV       0.150800
      5 C5           3.5050    -0.9710    -0.9540 c3         1 2VV      -0.056400
      6 C6           4.0540    -2.1560    -1.7520 c3         1 2VV       0.030300
      7 C8           3.4730    -2.1380    -3.1420 ca         1 2VV      -0.120300
      8 C9           2.8780    -3.2740    -3.6580 ca         1 2VV      -0.089000
      9 C10          2.3470    -3.2580    -4.9340 ca         1 2VV      -0.098500
     10 C11          2.4080    -2.1050    -5.6940 ca         1 2VV      -0.090000
     11 C12          3.0010    -0.9670    -5.1780 ca         1 2VV      -0.098500
     12 C13          3.5280    -0.9830    -3.9000 ca         1 2VV      -0.089000
     13 N14          5.5130    -2.0580    -1.8310 na         1 2VV       0.496400
     14 C15          6.2180    -1.3360    -2.7400 cc         1 2VV      -0.297300
     15 C16          7.5360    -1.5120    -2.4700 cd         1 2VV      -0.318700
     16 C17          7.6370    -2.3670    -1.3630 cd         1 2VV       0.393200
     17 N18          6.4280    -2.6880    -0.9790 nc         1 2VV      -0.648800
     18 N19          8.6110    -0.9390    -3.1750 ns         1 2VV       0.035900
     19 C20          9.8790    -1.1980    -2.7990 c          1 2VV       0.530800
     20 O21         10.0940    -1.9280    -1.8500 o          1 2VV      -0.658100
     21 C22         11.0030    -0.5980    -3.5370 cc         1 2VV       0.271900
     22 C23         12.4350    -0.7770    -3.2590 ca         1 2VV      -0.172900
     23 C24         13.1800    -1.4860    -2.3200 ca         1 2VV      -0.014000
     24 C25         14.5430    -1.4280    -2.3520 ca         1 2VV      -0.133000
     25 C26         15.1970    -0.6600    -3.3210 ca         1 2VV       0.055000
     26 C27         14.4700     0.0530    -4.2640 ca         1 2VV      -0.110000
     27 C28         13.0810    -0.0000    -4.2410 ca         1 2VV      -0.263200
     28 N29         12.0850     0.5620    -4.9980 na         1 2VV       0.538900
     29 N31         10.9260     0.2010    -4.5810 nd         1 2VV      -0.633100
     30 C32         16.6810    -0.6070    -3.3410 cc         1 2VV      -0.271300
     31 C33         17.5230    -1.2520    -2.4820 cd         1 2VV      -0.252300
     32 N34         18.7850    -0.9420    -2.8400 na         1 2VV       0.459400
     33 N36         18.7290    -0.0860    -3.9460 nd         1 2VV      -0.663800
     34 C37         17.4760     0.1130    -4.2540 cc         1 2VV       0.408200
     35 H1          -0.3610     0.0830    -1.0180 h1         1 2VV       0.002533
     36 H2          -0.3610     0.8400     0.5810 h1         1 2VV       0.002533
     37 H3          -0.3610    -0.9230     0.4370 h1         1 2VV       0.002533
     38 H5           2.1420    -1.0210     1.7020 h1         1 2VV       0.002533
     39 H6           2.9420     0.5260     1.3940 h1         1 2VV       0.002533
     40 H7           1.2910     0.4950     2.0280 h1         1 2VV       0.002533
     41 H8           1.5130    -1.1750    -1.7350 h1         1 2VV       0.014200
     42 H9           1.7980    -2.0570    -0.2280 h1         1 2VV       0.014200
     43 H10          3.9880    -0.9340     0.0150 hc         1 2VV       0.037700
     44 H11          3.7020    -0.0520    -1.4920 hc         1 2VV       0.037700
     45 H12          3.7800    -3.0810    -1.2590 h1         1 2VV       0.057700
     46 H13          2.8300    -4.1780    -3.0630 ha         1 2VV       0.114000
     47 H14          1.8810    -4.1490    -5.3390 ha         1 2VV       0.106000
     48 H15          1.9930    -2.0930    -6.6950 ha         1 2VV       0.104000
     49 H16          3.0470    -0.0630    -5.7720 ha         1 2VV       0.106000
     50 H17          3.9930    -0.0920    -3.4950 ha         1 2VV       0.114000
     51 H18          5.8030    -0.7300    -3.5360 h4         1 2VV       0.159000
     52 H19          8.5590    -2.7010    -0.9010 h4         1 2VV       0.056100
     53 H20          8.4340    -0.3430    -3.9590 hn         1 2VV       0.169500
     54 H21         12.6780    -2.0820    -1.5680 ha         1 2VV       0.129000
     55 H22         15.1230    -1.9800    -1.6220 ha         1 2VV       0.107000
     56 H23         14.9810     0.6470    -5.0120 ha         1 2VV       0.108000
     57 H24         12.2410     1.1670    -5.7790 hn         1 2VV       0.139700
     58 H25         17.2300    -1.8950    -1.6610 h4         1 2VV       0.151000
     59 H26         19.6180    -1.2670    -2.3910 hn         1 2VV       0.147700
     60 H27         17.1110     0.7310    -5.0650 h4         1 2VV       0.005100
@<TRIPOS>BOND
     1     1     2 1   
     2     1    35 1   
     3     1    36 1   
     4     1    37 1   
     5     2     3 1   
     6     2     4 1   
     7     3    38 1   
     8     3    39 1   
     9     3    40 1   
    10     4     5 1   
    11     4    41 1   
    12     4    42 1   
    13     5     6 1   
    14     5    43 1   
    15     5    44 1   
    16     6     7 1   
    17     6    13 1   
    18     6    45 1   
    19     7     8 ar  
    20     7    12 ar  
    21     8     9 ar  
    22     8    46 1   
    23     9    10 ar  
    24     9    47 1   
    25    10    11 ar  
    26    10    48 1   
    27    11    12 ar  
    28    11    49 1   
    29    12    50 1   
    30    13    14 1   
    31    13    17 1   
    32    14    15 2   
    33    14    51 1   
    34    15    16 1   
    35    15    18 1   
    36    16    17 2   
    37    16    52 1   
    38    18    19 1   
    39    18    53 1   
    40    19    20 2   
    41    19    21 1   
    42    21    22 1   
    43    21    29 2   
    44    22    23 ar  
    45    22    27 ar  
    46    23    24 ar  
    47    23    54 1   
    48    24    25 ar  
    49    24    55 1   
    50    25    26 ar  
    51    25    30 1   
    52    26    27 ar  
    53    26    56 1   
    54    27    28 1   
    55    28    29 1   
    56    28    57 1   
    57    30    31 2   
    58    30    34 1   
    59    31    32 1   
    60    31    58 1   
    61    32    33 1   
    62    32    59 1   
    63    33    34 2   
    64    34    60 1   
@<TRIPOS>SUBSTRUCTURE
     1 2VV         1 TEMP              0 ****  ****    0 ROOT
