@<TRIPOS>MOLECULE
molecule
   60    64     1     0     0
SMALL
bcc


@<TRIPOS>ATOM
      1 C1           0.0000     0.0000     0.0000 c3         1 2VV       0.150100
      2 N2           1.4700     0.0000     0.0000 n3         1 2VV      -0.731600
      3 C3           1.9960     0.0000     1.3710 c3         1 2VV       0.150100
      4 C4           1.9960    -1.1380    -0.7660 c3         1 2VV       0.162800
      5 C5           3.5050    -0.9710    -0.9540 c3         1 2VV      -0.096400
      6 C6           4.0540    -2.1560    -1.7520 c3         1 2VV       0.137300
      7 C8           3.4730    -2.1380    -3.1420 ca         1 2VV      -0.112300
      8 C9           2.8780    -3.2740    -3.6580 ca         1 2VV      -0.112500
      9 C10          2.3470    -3.2580    -4.9340 ca         1 2VV      -0.128500
     10 C11          2.4080    -2.1050    -5.6940 ca         1 2VV      -0.118000
     11 C12          3.0010    -0.9670    -5.1780 ca         1 2VV      -0.128500
     12 C13          3.5280    -0.9830    -3.9000 ca         1 2VV      -0.112500
     13 N14          5.5130    -2.0580    -1.8310 na         1 2VV       0.068400
     14 C15          6.2180    -1.3360    -2.7400 cc         1 2VV      -0.153300
     15 C16          7.5360    -1.5120    -2.4700 cd         1 2VV      -0.162700
     16 C17          7.6370    -2.3670    -1.3630 cd         1 2VV       0.340200
     17 N18          6.4280    -2.6880    -0.9790 nc         1 2VV      -0.511800
     18 N19          8.6110    -0.9390    -3.1750 ns         1 2VV      -0.434100
     19 C20          9.8790    -1.1980    -2.7990 c          1 2VV       0.634800
     20 O21         10.0940    -1.9280    -1.8500 o          1 2VV      -0.607100
     21 C22         11.0030    -0.5980    -3.5370 cd         1 2VV       0.288900
     22 C23         12.4350    -0.7770    -3.2590 ca         1 2VV      -0.185900
     23 C24         13.1800    -1.4860    -2.3200 ca         1 2VV      -0.045000
     24 C25         14.5430    -1.4280    -2.3520 ca         1 2VV      -0.157000
     25 C26         15.1970    -0.6600    -3.3210 ca         1 2VV       0.048000
     26 C27         14.4700     0.0530    -4.2640 ca         1 2VV      -0.146000
     27 C28         13.0810    -0.0000    -4.2410 ca         1 2VV      -0.073200
     28 N29         12.0850     0.5620    -4.9980 na         1 2VV       0.029900
     29 N31         10.9260     0.2010    -4.5810 nc         1 2VV      -0.506100
     30 C32         16.6810    -0.6070    -3.3410 cc         1 2VV      -0.268300
     31 C33         17.5230    -1.2520    -2.4820 cd         1 2VV      -0.094300
     32 N34         18.7850    -0.9420    -2.8400 na         1 2VV      -0.038600
     33 N36         18.7290    -0.0860    -3.9460 nd         1 2VV      -0.508800
     34 C37         17.4760     0.1130    -4.2540 cc         1 2VV       0.349200
     35 H1          -0.3610     0.0830    -1.0180 h1         1 2VV       0.033033
     36 H2          -0.3610     0.8400     0.5810 h1         1 2VV       0.033033
     37 H3          -0.3610    -0.9230     0.4370 h1         1 2VV       0.033033
     38 H5           2.1420    -1.0210     1.7020 h1         1 2VV       0.033033
     39 H6           2.9420     0.5260     1.3940 h1         1 2VV       0.033033
     40 H7           1.2910     0.4950     2.0280 h1         1 2VV       0.033033
     41 H8           1.5130    -1.1750    -1.7350 h1         1 2VV       0.037200
     42 H9           1.7980    -2.0570    -0.2280 h1         1 2VV       0.037200
     43 H10          3.9880    -0.9340     0.0150 hc         1 2VV       0.064200
     44 H11          3.7020    -0.0520    -1.4920 hc         1 2VV       0.064200
     45 H12          3.7800    -3.0810    -1.2590 h1         1 2VV       0.085700
     46 H13          2.8300    -4.1780    -3.0630 ha         1 2VV       0.136500
     47 H14          1.8810    -4.1490    -5.3390 ha         1 2VV       0.133500
     48 H15          1.9930    -2.0930    -6.6950 ha         1 2VV       0.132000
     49 H16          3.0470    -0.0630    -5.7720 ha         1 2VV       0.133500
     50 H17          3.9930    -0.0920    -3.4950 ha         1 2VV       0.136500
     51 H18          5.8030    -0.7300    -3.5360 h4         1 2VV       0.174000
     52 H19          8.5590    -2.7010    -0.9010 h4         1 2VV       0.090100
     53 H20          8.4340    -0.3430    -3.9590 hn         1 2VV       0.333500
     54 H21         12.6780    -2.0820    -1.5680 ha         1 2VV       0.159000
     55 H22         15.1230    -1.9800    -1.6220 ha         1 2VV       0.131000
     56 H23         14.9810     0.6470    -5.0120 ha         1 2VV       0.131000
     57 H24         12.2410     1.1670    -5.7790 hn         1 2VV       0.335700
     58 H25         17.2300    -1.8950    -1.6610 h4         1 2VV       0.176000
     59 H26         19.6180    -1.2670    -2.3910 hn         1 2VV       0.332700
     60 H27         17.1110     0.7310    -5.0650 h4         1 2VV       0.050100
@<TRIPOS>BOND
     1    28    29 1
     2    28    27 1
     3     9     8 ar
     4     9    10 ar
     5    29    21 2
     6     8     7 ar
     7    10    11 ar
     8    27    26 ar
     9    27    22 ar
    10    26    25 ar
    11    21    22 1
    12    21    19 1
    13    18    19 1
    14    18    15 1
    15    14    15 2
    16    14    13 1
    17    34    33 2
    18    34    30 1
    19     7     6 1
    20     7    12 ar
    21    22    23 ar
    22    11    12 ar
    23    19    20 2
    24    15    16 1
    25    33    32 1
    26    25    30 1
    27    25    24 ar
    28    30    31 2
    29     6    13 1
    30     6     5 1
    31    13    17 1
    32    23    24 ar
    33    32    31 1
    34    16    17 2
    35     5     4 1
    36     4     2 1
    37     3     2 1
    38     2     1 1
    39     1    35 1
    40     1    36 1
    41     1    37 1
    42     3    38 1
    43     3    39 1
    44     3    40 1
    45     4    41 1
    46     4    42 1
    47     5    43 1
    48     5    44 1
    49     6    45 1
    50     8    46 1
    51     9    47 1
    52    10    48 1
    53    11    49 1
    54    12    50 1
    55    14    51 1
    56    16    52 1
    57    18    53 1
    58    23    54 1
    59    24    55 1
    60    26    56 1
    61    28    57 1
    62    31    58 1
    63    32    59 1
    64    34    60 1
@<TRIPOS>SUBSTRUCTURE
     1 2VV         1 TEMP              0 ****  ****    0 ROOT
