@<TRIPOS>MOLECULE
2VW
   60    64     1     0     0
SMALL
bcc


@<TRIPOS>ATOM
      1 C1           0.0000     0.0000     0.0000 c3         1 2VW       0.181100
      2 N2           1.4690     0.0000     0.0000 n3         1 2VW      -0.543600
      3 C3           1.9960     0.0000     1.3710 c3         1 2VW       0.181100
      4 C4           1.9960    -1.1390    -0.7650 c3         1 2VW       0.150800
      5 C5           3.5050    -0.9710    -0.9550 c3         1 2VW      -0.056400
      6 C6           4.0530    -2.1560    -1.7530 c3         1 2VW       0.030300
      7 C8           3.8890    -3.4210    -0.9490 ca         1 2VW      -0.119300
      8 C9           4.3390    -3.4720     0.3570 ca         1 2VW      -0.091000
      9 C10          4.1890    -4.6320     1.0940 ca         1 2VW      -0.098000
     10 C11          3.5900    -5.7410     0.5250 ca         1 2VW      -0.091000
     11 C12          3.1410    -5.6900    -0.7810 ca         1 2VW      -0.098000
     12 C13          3.2850    -4.5270    -1.5170 ca         1 2VW      -0.091000
     13 N14          5.4730    -1.9390    -2.0370 na         1 2VW       0.495400
     14 C15          6.5080    -2.2320    -1.2090 cc         1 2VW      -0.299300
     15 C16          7.6550    -1.8790    -1.8440 cd         1 2VW      -0.318700
     16 C17          7.3060    -1.3540    -3.0980 cd         1 2VW       0.394200
     17 N18          6.0040    -1.3960    -3.2150 nc         1 2VW      -0.645800
     18 N19          8.9600    -2.0150    -1.3370 ns         1 2VW       0.035900
     19 C20         10.0160    -1.6220    -2.0770 c          1 2VW       0.530800
     20 O21          9.8390    -1.1500    -3.1840 o          1 2VW      -0.657100
     21 C22         11.3820    -1.7640    -1.5450 cc         1 2VW       0.271900
     22 C23         12.6320    -1.3880    -2.2190 ca         1 2VW      -0.172900
     23 C24         12.9640    -0.8270    -3.4490 ca         1 2VW      -0.014000
     24 C25         14.2740    -0.6040    -3.7630 ca         1 2VW      -0.133000
     25 C26         15.2850    -0.9340    -2.8540 ca         1 2VW       0.055000
     26 C27         14.9720    -1.4940    -1.6240 ca         1 2VW      -0.110000
     27 C28         13.6410    -1.7250    -1.2950 ca         1 2VW      -0.263200
     28 N29         12.9970    -2.2460    -0.2020 na         1 2VW       0.537900
     29 N31         11.7250    -2.2490    -0.3710 nd         1 2VW      -0.633100
     30 C32         16.7050    -0.6850    -3.2100 cc         1 2VW      -0.270300
     31 C33         17.1610    -0.1450    -4.3760 cd         1 2VW      -0.252300
     32 N34         18.5070    -0.0890    -4.3020 na         1 2VW       0.458400
     33 N36         18.8980    -0.6060    -3.0610 nd         1 2VW      -0.663800
     34 C37         17.8260    -0.9590    -2.4020 cc         1 2VW       0.407200
     35 H1          -0.3610     0.8410     0.5790 h1         1 2VW       0.001867
     36 H2          -0.3610     0.0810    -1.0180 h1         1 2VW       0.001867
     37 H3          -0.3610    -0.9220     0.4390 h1         1 2VW       0.001867
     38 H5           2.0100    -1.0140     1.7530 h1         1 2VW       0.001867
     39 H6           3.0030     0.4000     1.3710 h1         1 2VW       0.001867
     40 H7           1.3640     0.6140     2.0010 h1         1 2VW       0.001867
     41 H8           1.7990    -2.0580    -0.2270 h1         1 2VW       0.014700
     42 H9           1.5120    -1.1770    -1.7340 h1         1 2VW       0.014700
     43 H10          3.9880    -0.9330     0.0140 hc         1 2VW       0.038200
     44 H11          3.7010    -0.0520    -1.4930 hc         1 2VW       0.038200
     45 H12          3.5080    -2.2470    -2.6840 h1         1 2VW       0.059700
     46 H13          4.8080    -2.6030     0.8030 ha         1 2VW       0.113500
     47 H14          4.5410    -4.6720     2.1180 ha         1 2VW       0.106000
     48 H15          3.4750    -6.6500     1.1020 ha         1 2VW       0.105000
     49 H16          2.6690    -6.5570    -1.2260 ha         1 2VW       0.106000
     50 H17          2.9330    -4.4860    -2.5400 ha         1 2VW       0.113500
     51 H18          6.4330    -2.6690    -0.2200 h4         1 2VW       0.158000
     52 H19          7.9980    -0.9840    -3.8450 h4         1 2VW       0.056100
     53 H20          9.1050    -2.4050    -0.4270 hn         1 2VW       0.169500
     54 H21         12.1850    -0.5690    -4.1560 ha         1 2VW       0.129000
     55 H22         14.5310    -0.1670    -4.7200 ha         1 2VW       0.107000
     56 H23         15.7590    -1.7480    -0.9240 ha         1 2VW       0.108000
     57 H24         13.4590    -2.5730     0.6240 hn         1 2VW       0.139700
     58 H25         16.5520     0.1800    -5.2120 h4         1 2VW       0.151000
     59 H26         19.1200     0.2590    -5.0120 hn         1 2VW       0.147700
     60 H27         17.8040    -1.3930    -1.4090 h4         1 2VW       0.005100
@<TRIPOS>BOND
     1     1     2 1   
     2     1    35 1   
     3     1    36 1   
     4     1    37 1   
     5     2     3 1   
     6     2     4 1   
     7     3    38 1   
     8     3    39 1   
     9     3    40 1   
    10     4     5 1   
    11     4    41 1   
    12     4    42 1   
    13     5     6 1   
    14     5    43 1   
    15     5    44 1   
    16     6     7 1   
    17     6    13 1   
    18     6    45 1   
    19     7     8 ar  
    20     7    12 ar  
    21     8     9 ar  
    22     8    46 1   
    23     9    10 ar  
    24     9    47 1   
    25    10    11 ar  
    26    10    48 1   
    27    11    12 ar  
    28    11    49 1   
    29    12    50 1   
    30    13    14 1   
    31    13    17 1   
    32    14    15 2   
    33    14    51 1   
    34    15    16 1   
    35    15    18 1   
    36    16    17 2   
    37    16    52 1   
    38    18    19 1   
    39    18    53 1   
    40    19    20 2   
    41    19    21 1   
    42    21    22 1   
    43    21    29 2   
    44    22    23 ar  
    45    22    27 ar  
    46    23    24 ar  
    47    23    54 1   
    48    24    25 ar  
    49    24    55 1   
    50    25    26 ar  
    51    25    30 1   
    52    26    27 ar  
    53    26    56 1   
    54    27    28 1   
    55    28    29 1   
    56    28    57 1   
    57    30    31 2   
    58    30    34 1   
    59    31    32 1   
    60    31    58 1   
    61    32    33 1   
    62    32    59 1   
    63    33    34 2   
    64    34    60 1   
@<TRIPOS>SUBSTRUCTURE
     1 2VW         1 TEMP              0 ****  ****    0 ROOT
