@<TRIPOS>MOLECULE
molecule
   60    64     1     0     0
SMALL
bcc


@<TRIPOS>ATOM
      1 C1           0.0000     0.0000     0.0000 c3         1 2VW       0.150600
      2 N2           1.4690     0.0000     0.0000 n3         1 2VW      -0.729600
      3 C3           1.9960     0.0000     1.3710 c3         1 2VW       0.150600
      4 C4           1.9960    -1.1390    -0.7650 c3         1 2VW       0.161800
      5 C5           3.5050    -0.9710    -0.9550 c3         1 2VW      -0.096400
      6 C6           4.0530    -2.1560    -1.7530 c3         1 2VW       0.137300
      7 C8           3.8890    -3.4210    -0.9490 ca         1 2VW      -0.110300
      8 C9           4.3390    -3.4720     0.3570 ca         1 2VW      -0.114000
      9 C10          4.1890    -4.6320     1.0940 ca         1 2VW      -0.128000
     10 C11          3.5900    -5.7410     0.5250 ca         1 2VW      -0.118000
     11 C12          3.1410    -5.6900    -0.7810 ca         1 2VW      -0.128000
     12 C13          3.2850    -4.5270    -1.5170 ca         1 2VW      -0.114000
     13 N14          5.4730    -1.9390    -2.0370 na         1 2VW       0.067400
     14 C15          6.5080    -2.2320    -1.2090 cc         1 2VW      -0.154300
     15 C16          7.6550    -1.8790    -1.8440 cd         1 2VW      -0.163700
     16 C17          7.3060    -1.3540    -3.0980 cd         1 2VW       0.340200
     17 N18          6.0040    -1.3960    -3.2150 nc         1 2VW      -0.507800
     18 N19          8.9600    -2.0150    -1.3370 ns         1 2VW      -0.434100
     19 C20         10.0160    -1.6220    -2.0770 c          1 2VW       0.634800
     20 O21          9.8390    -1.1500    -3.1840 o          1 2VW      -0.606100
     21 C22         11.3820    -1.7640    -1.5450 cd         1 2VW       0.288900
     22 C23         12.6320    -1.3880    -2.2190 ca         1 2VW      -0.185900
     23 C24         12.9640    -0.8270    -3.4490 ca         1 2VW      -0.045000
     24 C25         14.2740    -0.6040    -3.7630 ca         1 2VW      -0.157000
     25 C26         15.2850    -0.9340    -2.8540 ca         1 2VW       0.049000
     26 C27         14.9720    -1.4940    -1.6240 ca         1 2VW      -0.146000
     27 C28         13.6410    -1.7250    -1.2950 ca         1 2VW      -0.074200
     28 N29         12.9970    -2.2460    -0.2020 na         1 2VW       0.028900
     29 N31         11.7250    -2.2490    -0.3710 nc         1 2VW      -0.507100
     30 C32         16.7050    -0.6850    -3.2100 cc         1 2VW      -0.267300
     31 C33         17.1610    -0.1450    -4.3760 cd         1 2VW      -0.093300
     32 N34         18.5070    -0.0890    -4.3020 na         1 2VW      -0.039600
     33 N36         18.8980    -0.6060    -3.0610 nd         1 2VW      -0.508800
     34 C37         17.8260    -0.9590    -2.4020 cc         1 2VW       0.349200
     35 H1          -0.3610     0.8410     0.5790 h1         1 2VW       0.032367
     36 H2          -0.3610     0.0810    -1.0180 h1         1 2VW       0.032367
     37 H3          -0.3610    -0.9220     0.4390 h1         1 2VW       0.032367
     38 H5           2.0100    -1.0140     1.7530 h1         1 2VW       0.032367
     39 H6           3.0030     0.4000     1.3710 h1         1 2VW       0.032367
     40 H7           1.3640     0.6140     2.0010 h1         1 2VW       0.032367
     41 H8           1.7990    -2.0580    -0.2270 h1         1 2VW       0.038200
     42 H9           1.5120    -1.1770    -1.7340 h1         1 2VW       0.038200
     43 H10          3.9880    -0.9330     0.0140 hc         1 2VW       0.064700
     44 H11          3.7010    -0.0520    -1.4930 hc         1 2VW       0.064700
     45 H12          3.5080    -2.2470    -2.6840 h1         1 2VW       0.087700
     46 H13          4.8080    -2.6030     0.8030 ha         1 2VW       0.136000
     47 H14          4.5410    -4.6720     2.1180 ha         1 2VW       0.133500
     48 H15          3.4750    -6.6500     1.1020 ha         1 2VW       0.132000
     49 H16          2.6690    -6.5570    -1.2260 ha         1 2VW       0.133500
     50 H17          2.9330    -4.4860    -2.5400 ha         1 2VW       0.136000
     51 H18          6.4330    -2.6690    -0.2200 h4         1 2VW       0.173000
     52 H19          7.9980    -0.9840    -3.8450 h4         1 2VW       0.090100
     53 H20          9.1050    -2.4050    -0.4270 hn         1 2VW       0.332500
     54 H21         12.1850    -0.5690    -4.1560 ha         1 2VW       0.159000
     55 H22         14.5310    -0.1670    -4.7200 ha         1 2VW       0.131000
     56 H23         15.7590    -1.7480    -0.9240 ha         1 2VW       0.131000
     57 H24         13.4590    -2.5730     0.6240 hn         1 2VW       0.335700
     58 H25         16.5520     0.1800    -5.2120 h4         1 2VW       0.176000
     59 H26         19.1200     0.2590    -5.0120 hn         1 2VW       0.332700
     60 H27         17.8040    -1.3930    -1.4090 h4         1 2VW       0.050100
@<TRIPOS>BOND
     1    28    29 1
     2    28    27 1
     3    29    21 2
     4    26    27 ar
     5    26    25 ar
     6    27    22 ar
     7    34    33 2
     8    34    30 1
     9    33    32 1
    10    21    22 1
    11    21    19 1
    12    30    25 1
    13    30    31 2
    14    25    24 ar
    15    22    23 ar
    16    18    19 1
    17    18    15 1
    18    32    31 1
    19    16    15 1
    20    16    17 2
    21    19    20 2
    22    24    23 ar
    23    15    14 2
    24    17    13 1
    25    14    13 1
    26    13     6 1
    27    12    11 ar
    28    12     7 ar
    29    11    10 ar
    30     6     5 1
    31     6     7 1
    32     5     4 1
    33     7     8 ar
    34    10     9 ar
    35     4     2 1
    36     8     9 ar
    37     1     2 1
    38     2     3 1
    39     1    35 1
    40     1    36 1
    41     1    37 1
    42     3    38 1
    43     3    39 1
    44     3    40 1
    45     4    41 1
    46     4    42 1
    47     5    43 1
    48     5    44 1
    49     6    45 1
    50     8    46 1
    51     9    47 1
    52    10    48 1
    53    11    49 1
    54    12    50 1
    55    14    51 1
    56    16    52 1
    57    18    53 1
    58    23    54 1
    59    24    55 1
    60    26    56 1
    61    28    57 1
    62    31    58 1
    63    32    59 1
    64    34    60 1
@<TRIPOS>SUBSTRUCTURE
     1 2VW         1 TEMP              0 ****  ****    0 ROOT
