@<TRIPOS>MOLECULE
molecule
   49    51     1     0     0
SMALL
bcc


@<TRIPOS>ATOM
      1 N1           0.0000     0.0000     0.0000 nh         1 2VX      -0.609400
      2 C2           1.4000     0.0000     0.0000 ca         1 2VX       0.083600
      3 C3           2.0960     0.0000     1.2020 ca         1 2VX       0.127900
      4 C4           3.4840    -0.0010     1.1980 ca         1 2VX       0.093600
      5 C5           4.1740    -0.0030    -0.0080 ca         1 2VX      -0.135000
      6 C6           3.4800    -0.0030    -1.2040 ca         1 2VX      -0.157000
      7 C7           2.0970    -0.0080    -1.2040 ca         1 2VX       0.141900
      8 F8           1.4230    -0.0160    -2.3740 f          1 2VX      -0.118900
      9 F9           1.4230     0.0030     2.3730 f          1 2VX      -0.119900
     10 N10          4.1890     0.0010     2.4070 nu         1 2VX      -0.760500
     11 S11          5.6150     0.8340     2.5340 s6         1 2VX       1.326900
     12 C12          5.1680     2.5540     2.1750 c3         1 2VX      -0.221600
     13 C13          6.0400     4.8860     1.9580 c3         1 2VX      -0.082100
     14 C14          6.4170     3.4350     2.2620 c3         1 2VX      -0.063400
     15 C15         -0.7000    -1.2090     0.0060 ca         1 2VX       0.185600
     16 C16          0.0010    -2.4150     0.0150 ca         1 2VX      -0.156000
     17 C17         -0.6600    -3.6100     0.0210 ca         1 2VX      -0.074000
     18 C18         -2.0560    -3.6340     0.0210 ca         1 2VX       0.141400
     19 C19         -2.7720    -2.4150     0.0140 ca         1 2VX      -0.156600
     20 C20         -2.0850    -1.2040     0.0120 ca         1 2VX      -0.131000
     21 N21         -2.7470    -4.8020     0.0280 nc         1 2VX      -0.634100
     22 C22         -4.0450    -4.8240     0.0280 cd         1 2VX       0.485800
     23 N23         -4.8130    -3.7020     0.0220 n          1 2VX      -0.387300
     24 C24         -4.2410    -2.4760     0.0150 c          1 2VX       0.705100
     25 C25         -6.2730    -3.8230     0.0210 c3         1 2VX       0.086300
     26 O26         -4.9160    -1.4630     0.0090 o          1 2VX      -0.626500
     27 O27          5.9850     0.6900     3.8980 o          1 2VX      -0.623300
     28 O28          6.4250     0.3010     1.4950 o          1 2VX      -0.623300
     29 C29         -0.7310     1.2700    -0.0020 c3         1 2VX       0.235100
     30 H1           5.2570    -0.0010    -0.0110 ha         1 2VX       0.200000
     31 H2           4.0210    -0.0070    -2.1430 ha         1 2VX       0.161000
     32 H3           3.8470    -0.5270     3.1850 hn         1 2VX       0.475800
     33 H4           4.7500     2.6180     1.1780 h1         1 2VX       0.102200
     34 H5           4.4350     2.8950     2.8960 h1         1 2VX       0.102200
     35 H6           6.9240     5.5090     2.0190 hc         1 2VX       0.039700
     36 H7           5.3070     5.2270     2.6780 hc         1 2VX       0.039700
     37 H8           5.6230     4.9490     0.9600 hc         1 2VX       0.039700
     38 H9           7.1500     3.0940     1.5410 hc         1 2VX       0.056200
     39 H10          6.8350     3.3720     3.2590 hc         1 2VX       0.056200
     40 H11          1.0840    -2.4040     0.0150 ha         1 2VX       0.139000
     41 H12         -0.1020    -4.5390     0.0280 ha         1 2VX       0.151000
     42 H13         -2.6220    -0.2760     0.1670 ha         1 2VX       0.157000
     43 H14         -4.5430    -5.7870     0.0340 h5         1 2VX       0.053800
     44 H15         -6.6760    -3.3370     0.9020 h1         1 2VX       0.054367
     45 H16         -6.6750    -3.3500    -0.8670 h1         1 2VX       0.054367
     46 H17         -6.5500    -4.8700     0.0290 h1         1 2VX       0.054367
     47 H18         -0.0260     2.0930    -0.0310 h1         1 2VX       0.044033
     48 H19         -1.3330     1.3420     0.8960 h1         1 2VX       0.044033
     49 H20         -1.3740     1.3160    -0.8730 h1         1 2VX       0.044033
@<TRIPOS>BOND
     1    12    14 1   
     2    12    11 1   
     3    28    11 2   
     4    14    13 1   
     5    11    10 1   
     6    11    27 2   
     7    10     4 1   
     8     9     3 1   
     9     4     3 ar  
    10     4     5 ar  
    11     3     2 ar  
    12     5     6 ar  
    13    29     1 1   
    14     2     1 1   
    15     2     7 ar  
    16     1    15 1   
    17    15    16 ar  
    18    15    20 ar  
    19    16    17 ar  
    20     6     7 ar  
    21    20    19 ar  
    22     7     8 1   
    23    17    18 ar  
    24    19    18 ar  
    25    19    24 1   
    26    18    21 1   
    27    26    24 2   
    28    24    23 1   
    29    21    22 2   
    30    23    22 1   
    31    23    25 1   
    32     5    30 1   
    33     6    31 1   
    34    10    32 1   
    35    12    33 1   
    36    12    34 1   
    37    13    35 1   
    38    13    36 1   
    39    13    37 1   
    40    14    38 1   
    41    14    39 1   
    42    16    40 1   
    43    17    41 1   
    44    20    42 1   
    45    22    43 1   
    46    25    44 1   
    47    25    45 1   
    48    25    46 1   
    49    29    47 1   
    50    29    48 1   
    51    29    49 1   
@<TRIPOS>SUBSTRUCTURE
     1 2VX         1 TEMP              0 ****  ****    0 ROOT
