@<TRIPOS>MOLECULE
2VX
   49    51     1     0     0
SMALL
bcc


@<TRIPOS>ATOM
      1 N1           0.0000     0.0000     0.0000 nh         1 2VX      -0.224400
      2 C2           1.4000     0.0000     0.0000 ca         1 2VX      -0.025400
      3 C3           2.0960     0.0000     1.2020 ca         1 2VX       0.090900
      4 C4           3.4840    -0.0010     1.1980 ca         1 2VX       0.029600
      5 C5           4.1740    -0.0030    -0.0080 ca         1 2VX      -0.127000
      6 C6           3.4800    -0.0030    -1.2040 ca         1 2VX      -0.111000
      7 C7           2.0970    -0.0080    -1.2040 ca         1 2VX       0.111900
      8 F8           1.4230    -0.0160    -2.3740 f          1 2VX      -0.115900
      9 F9           1.4230     0.0030     2.3730 f          1 2VX      -0.114900
     10 N10          4.1890     0.0010     2.4070 nu         1 2VX      -0.399500
     11 S11          5.6150     0.8340     2.5340 s6         1 2VX       0.954900
     12 C12          5.1680     2.5540     2.1750 c3         1 2VX      -0.011600
     13 C13          6.0400     4.8860     1.9580 c3         1 2VX       0.008900
     14 C14          6.4170     3.4350     2.2620 c3         1 2VX       0.005600
     15 C15         -0.7000    -1.2090     0.0060 ca         1 2VX       0.049600
     16 C16          0.0010    -2.4150     0.0150 ca         1 2VX      -0.142000
     17 C17         -0.6600    -3.6100     0.0210 ca         1 2VX      -0.041000
     18 C18         -2.0560    -3.6340     0.0210 ca         1 2VX       0.093400
     19 C19         -2.7720    -2.4150     0.0140 ca         1 2VX      -0.158600
     20 C20         -2.0850    -1.2040     0.0120 ca         1 2VX      -0.109000
     21 N21         -2.7470    -4.8020     0.0280 nc         1 2VX      -0.522100
     22 C22         -4.0450    -4.8240     0.0280 cd         1 2VX       0.315800
     23 N23         -4.8130    -3.7020     0.0220 n          1 2VX       0.014700
     24 C24         -4.2410    -2.4760     0.0150 c          1 2VX       0.624100
     25 C25         -6.2730    -3.8230     0.0210 c3         1 2VX       0.068300
     26 O26         -4.9160    -1.4630     0.0090 o          1 2VX      -0.671500
     27 O27          5.9850     0.6900     3.8980 o          1 2VX      -0.578300
     28 O28          6.4250     0.3010     1.4950 o          1 2VX      -0.578300
     29 C29         -0.7310     1.2700    -0.0020 c3         1 2VX       0.203100
     30 H1           5.2570    -0.0010    -0.0110 ha         1 2VX       0.184000
     31 H2           4.0210    -0.0070    -2.1430 ha         1 2VX       0.128000
     32 H3           3.8470    -0.5270     3.1850 hn         1 2VX       0.360800
     33 H4           4.7500     2.6180     1.1780 h1         1 2VX       0.071200
     34 H5           4.4350     2.8950     2.8960 h1         1 2VX       0.071200
     35 H6           6.9240     5.5090     2.0190 hc         1 2VX       0.005033
     36 H7           5.3070     5.2270     2.6780 hc         1 2VX       0.005033
     37 H8           5.6230     4.9490     0.9600 hc         1 2VX       0.005033
     38 H9           7.1500     3.0940     1.5410 hc         1 2VX       0.027700
     39 H10          6.8350     3.3720     3.2590 hc         1 2VX       0.027700
     40 H11          1.0840    -2.4040     0.0150 ha         1 2VX       0.114000
     41 H12         -0.1020    -4.5390     0.0280 ha         1 2VX       0.117000
     42 H13         -2.6220    -0.2760     0.1670 ha         1 2VX       0.137000
     43 H14         -4.5430    -5.7870     0.0340 h5         1 2VX       0.004800
     44 H15         -6.6760    -3.3370     0.9020 h1         1 2VX       0.021367
     45 H16         -6.6750    -3.3500    -0.8670 h1         1 2VX       0.021367
     46 H17         -6.5500    -4.8700     0.0290 h1         1 2VX       0.021367
     47 H18         -0.0260     2.0930    -0.0310 h1         1 2VX       0.012033
     48 H19         -1.3330     1.3420     0.8960 h1         1 2VX       0.012033
     49 H20         -1.3740     1.3160    -0.8730 h1         1 2VX       0.012033
@<TRIPOS>BOND
     1     1     2 1   
     2     1    15 1   
     3     1    29 1   
     4     2     3 ar  
     5     2     7 ar  
     6     3     4 ar  
     7     3     9 1   
     8     4     5 ar  
     9     4    10 1   
    10     5     6 ar  
    11     5    30 1   
    12     6     7 ar  
    13     6    31 1   
    14     7     8 1   
    15    10    11 1   
    16    10    32 1   
    17    11    12 1   
    18    11    27 2   
    19    11    28 2   
    20    12    14 1   
    21    12    33 1   
    22    12    34 1   
    23    13    14 1   
    24    13    35 1   
    25    13    36 1   
    26    13    37 1   
    27    14    38 1   
    28    14    39 1   
    29    15    16 ar  
    30    15    20 ar  
    31    16    17 ar  
    32    16    40 1   
    33    17    18 ar  
    34    17    41 1   
    35    18    19 ar  
    36    18    21 1   
    37    19    20 ar  
    38    19    24 1   
    39    20    42 1   
    40    21    22 2   
    41    22    23 1   
    42    22    43 1   
    43    23    24 1   
    44    23    25 1   
    45    24    26 2   
    46    25    44 1   
    47    25    45 1   
    48    25    46 1   
    49    29    47 1   
    50    29    48 1   
    51    29    49 1   
@<TRIPOS>SUBSTRUCTURE
     1 2VX         1 TEMP              0 ****  ****    0 ROOT
