@<TRIPOS>MOLECULE
molecule
   30    31     1     0     0
SMALL
bcc


@<TRIPOS>ATOM
      1 CM2          0.0000     0.0000     0.0000 c3         1 2VY      -0.123400
      2 O1           6.7100    -5.5820    -3.5500 o          1 2VY      -0.536100
      3 C6           6.1820    -4.5150    -3.7880 c          1 2VY       0.609500
      4 C2           6.6020    -1.9480    -0.9120 cc         1 2VY      -0.105100
      5 S1           7.0420    -3.5550    -1.2770 ss         1 2VY       0.010200
      6 C5           6.2420    -3.4690    -2.8410 cc         1 2VY      -0.178700
      7 C4           5.6880    -2.2240    -2.9920 cd         1 2VY      -0.040300
      8 C3           5.8990    -1.4010    -1.9140 cd         1 2VY      -0.126300
      9 C7A          5.3800     0.0120    -1.8620 c3         1 2VY       0.046200
     10 C4A          3.6730     0.0000     0.0000 ca         1 2VY       0.741200
     11 N3A          2.4040     0.0000     0.3950 nb         1 2VY      -0.808000
     12 C2A          1.4250    -0.0000    -0.4880 ca         1 2VY       0.727300
     13 N1A          1.6590    -0.0010    -1.7840 nb         1 2VY      -0.780000
     14 C6A          2.8980    -0.0010    -2.2550 ca         1 2VY       0.494200
     15 C5A          3.9560     0.0060    -1.3670 ca         1 2VY      -0.408900
     16 H1          -0.1040     0.7110     0.8110 hc         1 2VY       0.060033
     17 H2          -0.6600     0.2800    -0.8130 hc         1 2VY       0.060033
     18 H3          -0.2610    -0.9900     0.3520 hc         1 2VY       0.060033
     19 H4           4.4870    -0.0070     1.9090 hn         1 2VY       0.442800
     20 H5           5.6500     0.0720     0.6270 hn         1 2VY       0.442800
     21 H6           3.9160    -2.2000    -4.1740 hc         1 2VY       0.051033
     22 H7           5.4210    -2.1800    -5.1040 hc         1 2VY       0.051033
     23 H8           4.8800    -0.7200    -4.2650 hc         1 2VY       0.051033
     24 H10          5.6490    -4.3710    -4.7210 h4         1 2VY       0.007200
     25 H12          6.8560    -1.4360     0.0090 h4         1 2VY       0.166000
     26 H13          5.4150     0.4460    -2.8540 hc         1 2VY       0.052700
     27 H14          5.9940     0.5980    -1.1890 hc         1 2VY       0.052700
     28 H15          3.0790    -0.0010    -3.3230 h4         1 2VY       0.025100
     29 N4A          4.7000     0.0000     0.9310 nv         1 2VY      -1.002500
     30 CM4          4.9220    -1.8010    -4.2200 c3         1 2VY      -0.040800
@<TRIPOS>BOND
     1     1    12 1
     2    12    11 ar
     3    12    13 ar
     4    11    10 ar
     5    13    14 ar
     6    10    29 1
     7    10    15 ar
     8     4     5 1
     9     4     8 2
    10     5     6 1
    11    14    15 ar
    12    15     9 1
    13     8     9 1
    14     8     7 1
    15     6     7 2
    16     6     3 1
    17     7    30 1
    18     3     2 2
    19     1    16 1
    20     1    17 1
    21     1    18 1
    22    29    19 1
    23    29    20 1
    24    30    21 1
    25    30    22 1
    26    30    23 1
    27     3    24 1
    28     4    25 1
    29     9    26 1
    30     9    27 1
    31    14    28 1
@<TRIPOS>SUBSTRUCTURE
     1 2VY         1 TEMP              0 ****  ****    0 ROOT
