@<TRIPOS>MOLECULE
2VY
   30    31     1     0     0
SMALL
bcc


@<TRIPOS>ATOM
      1 CM2          0.0000     0.0000     0.0000 c3         1 2VY      -0.034400
      2 O1           6.7100    -5.5820    -3.5500 o          1 2VY      -0.558100
      3 C6           6.1820    -4.5150    -3.7880 c          1 2VY       0.698500
      4 C2           6.6020    -1.9480    -0.9120 cc         1 2VY      -0.013100
      5 S1           7.0420    -3.5550    -1.2770 ss         1 2VY      -0.148800
      6 C5           6.2420    -3.4690    -2.8410 cc         1 2VY      -0.131700
      7 C4           5.6880    -2.2240    -2.9920 cd         1 2VY      -0.035300
      8 C3           5.8990    -1.4010    -1.9140 cd         1 2VY      -0.134300
      9 C7A          5.3800     0.0120    -1.8620 c3         1 2VY       0.129200
     10 C4A          3.6730     0.0000     0.0000 ca         1 2VY       0.549200
     11 N3A          2.4040     0.0000     0.3950 nb         1 2VY      -0.695000
     12 C2A          1.4250    -0.0000    -0.4880 ca         1 2VY       0.646300
     13 N1A          1.6590    -0.0010    -1.7840 nb         1 2VY      -0.680000
     14 C6A          2.8980    -0.0010    -2.2550 ca         1 2VY       0.486200
     15 C5A          3.9560     0.0060    -1.3670 ca         1 2VY      -0.426900
     16 H1          -0.1040     0.7110     0.8110 hc         1 2VY       0.019033
     17 H2          -0.6600     0.2800    -0.8130 hc         1 2VY       0.019033
     18 H3          -0.2610    -0.9900     0.3520 hc         1 2VY       0.019033
     19 H4           4.4870    -0.0070     1.9090 hn         1 2VY       0.277800
     20 H5           5.6500     0.0720     0.6270 hn         1 2VY       0.277800
     21 H6           3.9160    -2.2000    -4.1740 hc         1 2VY       0.018700
     22 H7           5.4210    -2.1800    -5.1040 hc         1 2VY       0.018700
     23 H8           4.8800    -0.7200    -4.2650 hc         1 2VY       0.018700
     24 H10          5.6490    -4.3710    -4.7210 h4         1 2VY      -0.029800
     25 H12          6.8560    -1.4360     0.0090 h4         1 2VY       0.148000
     26 H13          5.4150     0.4460    -2.8540 hc         1 2VY       0.023700
     27 H14          5.9940     0.5980    -1.1890 hc         1 2VY       0.023700
     28 H15          3.0790    -0.0010    -3.3230 h4         1 2VY      -0.015900
     29 N4A          4.7000     0.0000     0.9310 nv         1 2VY      -0.526500
     30 CM4          4.9220    -1.8010    -4.2200 c3         1 2VY       0.057200
@<TRIPOS>BOND
     1     1    12 1   
     2     1    16 1   
     3     1    17 1   
     4     1    18 1   
     5     2     3 2   
     6     3     6 1   
     7     3    24 1   
     8     4     5 1   
     9     4     8 2   
    10     4    25 1   
    11     5     6 1   
    12     6     7 2   
    13     7     8 1   
    14     7    30 1   
    15     8     9 1   
    16     9    15 1   
    17     9    26 1   
    18     9    27 1   
    19    10    11 ar  
    20    10    15 ar  
    21    10    29 1   
    22    11    12 ar  
    23    12    13 ar  
    24    13    14 ar  
    25    14    15 ar  
    26    14    28 1   
    27    19    29 1   
    28    20    29 1   
    29    21    30 1   
    30    22    30 1   
    31    23    30 1   
@<TRIPOS>SUBSTRUCTURE
     1 2VY         1 TEMP              0 ****  ****    0 ROOT
