@<TRIPOS>MOLECULE
2VZ
   46    47     1     0     0
SMALL
bcc


@<TRIPOS>ATOM
      1 C2'        -0.4720   -0.3060    0.0340 c3        1 2VZ     -0.037200
      2 C1'         0.8660    0.3760   -0.1610 c3        1 2VZ     -0.073400
      3 C18         1.5230    0.6770    1.1680 c3        1 2VZ     -0.033100
      4 C5          1.4670   -0.4650    2.1230 ca        1 2VZ     -0.067300
      5 C4          2.3150   -0.4380    3.2340 ca        1 2VZ     -0.136000
      6 C3          2.2810   -1.4520    4.1940 ca        1 2VZ     -0.094300
      7 C6'         3.2000   -1.4220    5.3540 c3        1 2VZ     -0.044800
      8 C2          1.3710   -2.5020    4.0340 ca        1 2VZ     -0.136000
      9 C1          0.5270   -2.5390    2.9300 ca        1 2VZ     -0.127000
     10 C6          0.5670   -1.5360    1.9490 ca        1 2VZ     -0.016800
     11 C7         -0.3090   -1.5900    0.7780 ce        1 2VZ     -0.099400
     12 C8         -0.9050   -2.7290    0.3710 cf        1 2VZ     -0.066000
     13 C9         -1.8220   -2.8530   -0.7560 cf        1 2VZ     -0.166200
     14 C19        -3.1320   -2.1670   -0.6200 c3        1 2VZ     -0.041900
     15 C10        -1.5390   -3.5930   -1.8480 ce        1 2VZ     -0.069000
     16 C11        -0.2870   -4.2860   -2.0550 ce        1 2VZ     -0.166000
     17 C12        -0.1070   -5.3300   -2.8780 cf        1 2VZ     -0.053000
     18 C13        -1.1070   -6.0410   -3.6630 cf        1 2VZ     -0.168200
     19 C20        -1.2170   -7.4810   -3.2920 c3        1 2VZ     -0.037900
     20 C14        -1.8420   -5.5280   -4.6580 ce        1 2VZ     -0.145200
     21 C15        -1.8550   -4.1130   -5.1870 c         1 2VZ      0.899800
     22 O1         -1.0220   -3.7990   -6.0810 o         1 2VZ     -0.832800
     23 O2         -2.7530   -3.3350   -4.7450 o         1 2VZ     -0.832800
     24 H1         -0.9400   -0.4980   -0.9700 hc        1 2VZ      0.056700
     25 H2         -1.1630    0.3680    0.6080 hc        1 2VZ      0.056700
     26 H3          0.7220    1.3300   -0.7320 hc        1 2VZ      0.045700
     27 H4          1.5330   -0.2860   -0.7730 hc        1 2VZ      0.045700
     28 H5          1.0090    1.5560    1.6470 hc        1 2VZ      0.040200
     29 H6          2.5920    0.9740    0.9970 hc        1 2VZ      0.040200
     30 H7          3.0200    0.3980    3.3530 ha        1 2VZ      0.121000
     31 H8          3.4620   -0.3710    5.6310 hc        1 2VZ      0.035700
     32 H9          2.7390   -1.9170    6.2430 hc        1 2VZ      0.035700
     33 H10         4.1480   -1.9630    5.1060 hc        1 2VZ      0.035700
     34 H11         1.3230   -3.3030    4.7870 ha        1 2VZ      0.121000
     35 H12        -0.1880   -3.3700    2.8330 ha        1 2VZ      0.134000
     36 H13        -0.7080   -3.6810    0.8960 ha        1 2VZ      0.114000
     37 H14        -3.7840   -2.7260    0.0980 hc        1 2VZ      0.034700
     38 H15        -3.6560   -2.1130   -1.6060 hc        1 2VZ      0.034700
     39 H16        -2.9960   -1.1280   -0.2280 hc        1 2VZ      0.034700
     40 H17        -2.2720   -3.6630   -2.6850 ha        1 2VZ      0.202000
     41 H18         0.5770   -3.8910   -1.4910 ha        1 2VZ      0.105000
     42 H19         0.9080   -5.7630   -2.9680 ha        1 2VZ      0.099000
     43 H20        -1.5400   -7.5860   -2.2270 hc        1 2VZ      0.018367
     44 H21        -1.9610   -8.0110   -3.9360 hc        1 2VZ      0.018367
     45 H22        -0.2280   -7.9900   -3.4070 hc        1 2VZ      0.018367
     46 H23        -2.5450   -6.1830   -5.2030 ha        1 2VZ      0.098000
@<TRIPOS>BOND
     1    1    2 1   
     2    1   11 1   
     3    1   24 1   
     4    1   25 1   
     5    2    3 1   
     6    2   26 1   
     7    2   27 1   
     8    3    4 1   
     9    3   28 1   
    10    3   29 1   
    11    4    5 ar  
    12    4   10 ar  
    13    5    6 ar  
    14    5   30 1   
    15    6    7 1   
    16    6    8 ar  
    17    7   31 1   
    18    7   32 1   
    19    7   33 1   
    20    8    9 ar  
    21    8   34 1   
    22    9   10 ar  
    23    9   35 1   
    24   10   11 1   
    25   11   12 2   
    26   12   13 1   
    27   12   36 1   
    28   13   14 1   
    29   13   15 2   
    30   14   37 1   
    31   14   38 1   
    32   14   39 1   
    33   15   16 1   
    34   15   40 1   
    35   16   17 2   
    36   16   41 1   
    37   17   18 1   
    38   17   42 1   
    39   18   19 1   
    40   18   20 2   
    41   19   43 1   
    42   19   44 1   
    43   19   45 1   
    44   20   21 1   
    45   20   46 1   
    46   21   22 1   
    47   21   23 1   
@<TRIPOS>SUBSTRUCTURE
     1 2VZ         1 TEMP              0 ****  ****    0 ROOT
