@<TRIPOS>MOLECULE
molecule
   46    47     1     0     0
SMALL
bcc


@<TRIPOS>ATOM
      1 C2'          0.0000     0.0000     0.0000 c3         1 2VZ      -0.035200
      2 C1'          1.5350     0.0000     0.0000 c3         1 2VZ      -0.080400
      3 C18          2.0410     0.0000     1.4400 c3         1 2VZ      -0.032100
      4 C5           1.4550    -1.1420     2.2230 ca         1 2VZ      -0.072300
      5 C4           2.1160    -1.5930     3.3510 ca         1 2VZ      -0.131000
      6 C3           1.5980    -2.6390     4.0930 ca         1 2VZ      -0.092300
      7 C6'          2.3300    -3.1200     5.3190 c3         1 2VZ      -0.044800
      8 C2           0.4130    -3.2490     3.7170 ca         1 2VZ      -0.129000
      9 C1          -0.2590    -2.8130     2.5950 ca         1 2VZ      -0.117000
     10 C6           0.2610    -1.7560     1.8400 ca         1 2VZ      -0.029800
     11 C7          -0.4520    -1.2990     0.6340 ce         1 2VZ      -0.103400
     12 C8          -1.4770    -2.0150     0.1110 cf         1 2VZ      -0.132000
     13 C9          -2.2370    -1.4850    -0.9500 cf         1 2VZ      -0.086200
     14 C19         -2.9580    -0.1730    -0.7800 c3         1 2VZ      -0.023900
     15 C10         -2.3190    -2.1590    -2.1320 ce         1 2VZ      -0.443000
     16 C11         -1.6470    -3.3820    -2.2900 ce         1 2VZ      -0.256000
     17 C12         -1.7300    -4.0570    -3.4740 cf         1 2VZ       0.033000
     18 C13         -1.0590    -5.2790    -3.6320 cf         1 2VZ      -0.183200
     19 C20         -0.2460    -5.8460    -2.4960 c3         1 2VZ      -0.031900
     20 C14         -1.1410    -5.9540    -4.8140 ce         1 2VZ      -0.069200
     21 C15         -0.6150    -7.2590    -4.9200 c          1 2VZ       0.846800
     22 O1          -0.6340    -7.9000    -6.1080 o          1 2VZ      -0.824300
     23 O2          -0.1420    -7.8050    -3.9400 o          1 2VZ      -0.824300
     24 H1          -0.3670     0.8390     0.5790 hc         1 2VZ       0.052200
     25 H2          -0.3670     0.0590    -1.0180 hc         1 2VZ       0.052200
     26 H3           1.8840     0.8990    -0.4930 hc         1 2VZ       0.045700
     27 H4           1.8840    -0.8990    -0.4930 hc         1 2VZ       0.045700
     28 H5           1.7390     0.9280     1.9100 hc         1 2VZ       0.045700
     29 H6           3.1180    -0.1120     1.4250 hc         1 2VZ       0.045700
     30 H7           3.0430    -1.1230     3.6580 ha         1 2VZ       0.122000
     31 H8           2.5500    -2.2770     5.9620 hc         1 2VZ       0.037700
     32 H9           1.7110    -3.8310     5.8540 hc         1 2VZ       0.037700
     33 H10          3.2560    -3.5990     5.0230 hc         1 2VZ       0.037700
     34 H11          0.0140    -4.0680     4.3040 ha         1 2VZ       0.126000
     35 H12         -1.1860    -3.2880     2.2990 ha         1 2VZ       0.138000
     36 H13         -1.7830    -2.9410     0.5820 ha         1 2VZ       0.134000
     37 H14         -4.0030    -0.3000    -1.0330 hc         1 2VZ       0.034033
     38 H15         -2.5160     0.5700    -1.4330 hc         1 2VZ       0.034033
     39 H16         -2.8720     0.1550     0.2490 hc         1 2VZ       0.034033
     40 H17         -1.2560    -2.2530    -2.3220 ha         1 2VZ       0.344000
     41 H18         -1.0640    -3.7900    -1.4730 ha         1 2VZ       0.112000
     42 H19         -2.3140    -3.6490    -4.2900 ha         1 2VZ       0.138000
     43 H20          0.0590    -5.0440    -1.8350 hc         1 2VZ       0.044033
     44 H21         -0.8450    -6.5600    -1.9440 hc         1 2VZ       0.044033
     45 H22          0.6320    -6.3410    -2.8920 hc         1 2VZ       0.044033
     46 H23         -1.7250    -5.5430    -5.6290 ha         1 2VZ       0.112000
@<TRIPOS>BOND
     1    14    13 1
     2    15    13 2
     3    15    16 1
     4    17    16 2
     5    17    18 1
     6    13    12 1
     7    20    18 2
     8    20    21 1
     9    18    19 1
    10    23    21 1
    11    21    22 1
    12     1     2 1
    13     1    11 1
    14    12    11 2
    15     2     3 1
    16    11    10 1
    17     3     4 1
    18    10     4 ar
    19    10     9 ar
    20     4     5 ar
    21     9     8 ar
    22     5     6 ar
    23     8     6 ar
    24     6     7 1
    25     1    24 1
    26     1    25 1
    27     2    26 1
    28     2    27 1
    29     3    28 1
    30     3    29 1
    31     5    30 1
    32     7    31 1
    33     7    32 1
    34     7    33 1
    35     8    34 1
    36     9    35 1
    37    12    36 1
    38    14    37 1
    39    14    38 1
    40    14    39 1
    41    15    40 1
    42    16    41 1
    43    17    42 1
    44    19    43 1
    45    19    44 1
    46    19    45 1
    47    20    46 1
@<TRIPOS>SUBSTRUCTURE
     1 2VZ         1 TEMP              0 ****  ****    0 ROOT
