@<TRIPOS>MOLECULE
2W0
   46    47     1     0     0
SMALL
bcc


@<TRIPOS>ATOM
      1 C5'         0.2340   -0.4780    0.9130 c3        1 2W0     -0.048800
      2 C4          1.6930   -0.5290    0.6580 ca        1 2W0     -0.086300
      3 C3          2.5580   -0.9150    1.6870 ca        1 2W0     -0.138000
      4 C2          3.9300   -0.9760    1.4620 ca        1 2W0     -0.133000
      5 C1          4.4470   -0.6470    0.2130 ca        1 2W0     -0.128000
      6 C6          3.6020   -0.2400   -0.8310 ca        1 2W0     -0.017800
      7 C5          2.2110   -0.1920   -0.6060 ca        1 2W0     -0.067300
      8 C18         1.2580    0.1770   -1.6890 c3        1 2W0     -0.031100
      9 C1'         1.9160    0.8020   -2.8990 c3        1 2W0     -0.073400
     10 C2'         3.1890    0.0720   -3.2730 c3        1 2W0     -0.034200
     11 C7          4.1570    0.1110   -2.1390 ce        1 2W0     -0.094400
     12 C8          5.4430    0.4810   -2.3020 cf        1 2W0     -0.065000
     13 C9          6.0880    0.7890   -3.5710 cf        1 2W0     -0.175200
     14 C19         6.1960   -0.3270   -4.5450 c3        1 2W0     -0.038900
     15 C10         6.6330    1.9970   -3.8370 ce        1 2W0     -0.051000
     16 C11         6.6400    3.1160   -2.9330 ce        1 2W0     -0.237000
     17 C12         6.9610    4.3920   -3.2210 cf        1 2W0     -0.021000
     18 C13         7.2870    4.9910   -4.5010 cf        1 2W0     -0.167200
     19 C20         6.6900    4.4240   -5.7390 c3        1 2W0     -0.043900
     20 C14         8.0830    6.0770   -4.5760 ce        1 2W0     -0.141200
     21 C15         8.7740    6.7850   -3.4310 c         1 2W0      0.892800
     22 O2          8.1470    6.9770   -2.3490 o         1 2W0     -0.830300
     23 O1          9.9560    7.1800   -3.6420 o         1 2W0     -0.830300
     24 H1         -0.3210   -1.0610    0.1350 hc        1 2W0      0.038033
     25 H2         -0.0180   -0.9010    1.9160 hc        1 2W0      0.038033
     26 H3         -0.1280    0.5810    0.8780 hc        1 2W0      0.038033
     27 H4          2.1510   -1.1720    2.6760 ha        1 2W0      0.121000
     28 H5          4.6070   -1.2840    2.2710 ha        1 2W0      0.124000
     29 H6          5.5320   -0.7130    0.0460 ha        1 2W0      0.135000
     30 H7          0.4870    0.8890   -1.2850 hc        1 2W0      0.041700
     31 H8          0.7110   -0.7560   -2.0020 hc        1 2W0      0.041700
     32 H9          2.1570    1.8770   -2.6850 hc        1 2W0      0.044200
     33 H10         1.2010    0.7820   -3.7630 hc        1 2W0      0.044200
     34 H11         3.6360    0.5500   -4.1860 hc        1 2W0      0.048700
     35 H12         2.9560   -0.9970   -3.5280 hc        1 2W0      0.048700
     36 H13         6.1080    0.5870   -1.4250 ha        1 2W0      0.124000
     37 H14         7.0610   -0.9850   -4.2760 hc        1 2W0      0.029367
     38 H15         5.2710   -0.9540   -4.5400 hc        1 2W0      0.029367
     39 H16         6.3600    0.0560   -5.5820 hc        1 2W0      0.029367
     40 H17         7.1360    2.1490   -4.8100 ha        1 2W0      0.122000
     41 H18         6.3760    2.8740   -1.8870 ha        1 2W0      0.113000
     42 H19         7.0070    5.1270   -2.3820 ha        1 2W0      0.182000
     43 H20         5.7530    3.8590   -5.5120 hc        1 2W0      0.021700
     44 H21         6.4380    5.2390   -6.4630 hc        1 2W0      0.021700
     45 H22         7.4090    3.7310   -6.2450 hc        1 2W0      0.021700
     46 H23         8.3110    6.5190   -5.5610 ha        1 2W0      0.102000
@<TRIPOS>BOND
     1    1    2 1   
     2    1   24 1   
     3    1   25 1   
     4    1   26 1   
     5    2    3 ar  
     6    2    7 ar  
     7    3    4 ar  
     8    3   27 1   
     9    4    5 ar  
    10    4   28 1   
    11    5    6 ar  
    12    5   29 1   
    13    6    7 ar  
    14    6   11 1   
    15    7    8 1   
    16    8    9 1   
    17    8   30 1   
    18    8   31 1   
    19    9   10 1   
    20    9   32 1   
    21    9   33 1   
    22   10   11 1   
    23   10   34 1   
    24   10   35 1   
    25   11   12 2   
    26   12   13 1   
    27   12   36 1   
    28   13   14 1   
    29   13   15 2   
    30   14   37 1   
    31   14   38 1   
    32   14   39 1   
    33   15   16 1   
    34   15   40 1   
    35   16   17 2   
    36   16   41 1   
    37   17   18 1   
    38   17   42 1   
    39   18   19 1   
    40   18   20 2   
    41   19   43 1   
    42   19   44 1   
    43   19   45 1   
    44   20   21 1   
    45   20   46 1   
    46   21   22 1   
    47   21   23 1   
@<TRIPOS>SUBSTRUCTURE
     1 2W0         1 TEMP              0 ****  ****    0 ROOT
