@<TRIPOS>MOLECULE
molecule
   46    47     1     0     0
SMALL
bcc


@<TRIPOS>ATOM
      1 C5'          0.0000     0.0000     0.0000 c3         1 2W0      -0.044800
      2 C4           1.5070     0.0000     0.0000 ca         1 2W0      -0.086300
      3 C3           2.1950     0.0000     1.2000 ca         1 2W0      -0.136000
      4 C2           3.5790     0.0010     1.2160 ca         1 2W0      -0.129000
      5 C1           4.2820     0.0040     0.0310 ca         1 2W0      -0.125000
      6 C6           3.5910     0.0060    -1.1860 ca         1 2W0      -0.021800
      7 C5           2.1940    -0.0050    -1.1990 ca         1 2W0      -0.072300
      8 C18          1.4190    -0.0180    -2.4880 c3         1 2W0      -0.031100
      9 C1'          2.2520     0.5340    -3.6420 c3         1 2W0      -0.080400
     10 C2'          3.5730    -0.2420    -3.7310 c3         1 2W0      -0.033200
     11 C7           4.3430     0.0130    -2.4540 ce         1 2W0      -0.105400
     12 C8           5.6760     0.2550    -2.4750 cf         1 2W0      -0.130000
     13 C9           6.3960     0.1320    -3.6790 cf         1 2W0      -0.084200
     14 C19          6.5380    -1.2170    -4.3360 c3         1 2W0      -0.023900
     15 C10          6.9620     1.2310    -4.2510 ce         1 2W0      -0.443000
     16 C11          6.8290     2.4880    -3.6390 ce         1 2W0      -0.257000
     17 C12          7.3970     3.5890    -4.2110 cf         1 2W0       0.032000
     18 C13          7.2640     4.8450    -3.6000 cf         1 2W0      -0.184200
     19 C20          6.4930     4.9780    -2.3110 c3         1 2W0      -0.030900
     20 C14          7.8310     5.9450    -4.1710 ce         1 2W0      -0.070200
     21 C15          7.8400     7.1740    -3.4790 c          1 2W0       0.846800
     22 O2           7.4050     7.2360    -2.3440 o          1 2W0      -0.824800
     23 O1           8.3310     8.2810    -4.0760 o          1 2W0      -0.824800
     24 H1          -0.3610    -0.8410    -0.5800 hc         1 2W0       0.038033
     25 H2          -0.3610     0.9230    -0.4380 hc         1 2W0       0.038033
     26 H3          -0.3610    -0.0820     1.0180 hc         1 2W0       0.038033
     27 H4           1.6470    -0.0020     2.1340 ha         1 2W0       0.121000
     28 H5           4.1100     0.0010     2.1600 ha         1 2W0       0.124000
     29 H6           5.3650     0.0050     0.0410 ha         1 2W0       0.137000
     30 H7           0.5300     0.5910    -2.3720 hc         1 2W0       0.044700
     31 H8           1.1300    -1.0360    -2.7170 hc         1 2W0       0.044700
     32 H9           1.7040     0.4200    -4.5690 hc         1 2W0       0.045200
     33 H10          2.4610     1.5820    -3.4660 hc         1 2W0       0.045200
     34 H11          4.1470     0.1300    -4.5710 hc         1 2W0       0.053200
     35 H12          3.3580    -1.3000    -3.8110 hc         1 2W0       0.053200
     36 H13          6.1940     0.5100    -1.5580 ha         1 2W0       0.134000
     37 H14          6.0790    -1.9740    -3.7110 hc         1 2W0       0.034033
     38 H15          7.5890    -1.4460    -4.4670 hc         1 2W0       0.034033
     39 H16          6.0490    -1.2020    -5.3020 hc         1 2W0       0.034033
     40 H17          6.0710     1.8450    -4.3030 ha         1 2W0       0.344000
     41 H18          6.2760     2.5830    -2.7120 ha         1 2W0       0.113000
     42 H19          7.9500     3.4930    -5.1380 ha         1 2W0       0.138000
     43 H20          5.8080     4.1450    -2.2130 hc         1 2W0       0.044033
     44 H21          5.9350     5.9060    -2.3170 hc         1 2W0       0.044033
     45 H22          7.1840     4.9770    -1.4760 hc         1 2W0       0.044033
     46 H23          8.3840     5.8470    -5.0970 ha         1 2W0       0.112000
@<TRIPOS>BOND
     1    14    13 1   
     2    15    13 2   
     3    15    16 1   
     4    13    12 1   
     5    17    16 2   
     6    17    18 1   
     7    20    18 2   
     8    20    21 1   
     9    18    19 1   
    10    10     9 1   
    11    10    11 1   
    12    22    21 1   
    13    21    23 1   
    14    12    11 2   
    15     9     8 1   
    16    11     6 1   
    17     8     7 1   
    18     6     7 ar  
    19     6     5 ar  
    20     7     2 ar  
    21     5     4 ar  
    22     2     1 1   
    23     2     3 ar  
    24     4     3 ar  
    25     1    24 1   
    26     1    25 1   
    27     1    26 1   
    28     3    27 1   
    29     4    28 1   
    30     5    29 1   
    31     8    30 1   
    32     8    31 1   
    33     9    32 1   
    34     9    33 1   
    35    10    34 1   
    36    10    35 1   
    37    12    36 1   
    38    14    37 1   
    39    14    38 1   
    40    14    39 1   
    41    15    40 1   
    42    16    41 1   
    43    17    42 1   
    44    19    43 1   
    45    19    44 1   
    46    19    45 1   
    47    20    46 1   
@<TRIPOS>SUBSTRUCTURE
     1 2W0         1 TEMP              0 ****  ****    0 ROOT
