@<TRIPOS>MOLECULE
2W1
   51    55     1     0     0
SMALL
bcc


@<TRIPOS>ATOM
      1 O01         0.1460   -0.1680   -0.0050 o         1 2W1     -0.532100
      2 C02         1.3830   -0.1170    0.0110 c         1 2W1      0.538400
      3 C03         2.0940   -0.0050    1.3160 cc        1 2W1      0.329800
      4 N04         1.3840    0.3250    2.4960 na        1 2W1     -0.249300
      5 C05         2.3060    0.2990    3.5360 ca        1 2W1     -0.061200
      6 C06         2.1970    0.5380    4.9150 ca        1 2W1     -0.137000
      7 C07         3.3500    0.4310    5.6720 ca        1 2W1     -0.102000
      8 C08         4.5930    0.0990    5.0930 ca        1 2W1     -0.156000
      9 C09         4.7280   -0.1400    3.7380 ca        1 2W1     -0.059000
     10 C10         3.5830   -0.0430    2.9280 ca        1 2W1      0.050400
     11 N11         3.4090   -0.2250    1.5470 nd        1 2W1     -0.522100
     12 C12         2.1960   -0.1880   -1.2140 ca        1 2W1     -0.167600
     13 C13         3.3490    0.5870   -1.3860 ca        1 2W1     -0.057000
     14 C14         4.0840    0.4990   -2.5660 ca        1 2W1     -0.147000
     15 C15         3.6470   -0.3670   -3.5780 ca        1 2W1      0.142100
     16 O16         4.3440   -0.3070   -4.7850 os        1 2W1     -0.375400
     17 C17         4.8230   -1.4940   -5.3330 ca        1 2W1      0.619600
     18 N18         4.8420   -2.6340   -4.5980 nb        1 2W1     -0.707000
     19 C19         5.3680   -3.7240   -5.1840 ca        1 2W1      0.424200
     20 C20         5.8830   -3.7340   -6.4910 ca        1 2W1     -0.272300
     21 C21         5.8500   -2.5500   -7.2280 ca        1 2W1     -0.070000
     22 C22         5.3120   -1.3870   -6.6660 ca        1 2W1     -0.190600
     23 C23         5.2580   -0.1030   -7.4200 c3        1 2W1     -0.014400
     24 C24         4.4230   -0.2420   -8.6900 c3        1 2W1     -0.106900
     25 C25         4.4500    1.0520   -9.4840 c3        1 2W1      0.126400
     26 O26         5.7780    1.4670   -9.7850 os        1 2W1     -0.416600
     27 C27         6.5780    1.6460   -8.6220 c3        1 2W1      0.126400
     28 C28         6.6580    0.3820   -7.7840 c3        1 2W1     -0.106900
     29 C29         2.4920   -1.1430   -3.4260 ca        1 2W1     -0.147000
     30 C30         1.7680   -1.0440   -2.2410 ca        1 2W1     -0.057000
     31 H1          0.4090    0.4620    2.5560 hn        1 2W1      0.321700
     32 H2          1.2320    0.7970    5.3720 ha        1 2W1      0.139000
     33 H3          3.3030    0.6100    6.7570 ha        1 2W1      0.135000
     34 H4          5.4760    0.0280    5.7470 ha        1 2W1      0.136000
     35 H5          5.7000   -0.3990    3.2920 ha        1 2W1      0.150000
     36 H7          3.6870    1.2720   -0.5930 ha        1 2W1      0.152500
     37 H8          4.9930    1.1000   -2.7110 ha        1 2W1      0.153000
     38 H9          5.3710   -4.6360   -4.5600 h4        1 2W1      0.028100
     39 H10         6.3020   -4.6540   -6.9170 ha        1 2W1      0.148000
     40 H11         6.2450   -2.5250   -8.2560 ha        1 2W1      0.146000
     41 H12         4.7750    0.6860   -6.7730 hc        1 2W1      0.076700
     42 H13         3.3650   -0.4930   -8.4250 hc        1 2W1      0.052950
     43 H14         4.8300   -1.0750   -9.3200 hc        1 2W1      0.052950
     44 H15         3.9740    0.9170  -10.4910 h1        1 2W1      0.048700
     45 H16         3.9230    1.8690   -8.9210 h1        1 2W1      0.048700
     46 H17         6.1660    2.4950   -8.0130 h1        1 2W1      0.048700
     47 H18         7.5870    1.9250   -9.0280 h1        1 2W1      0.048700
     48 H19         7.1950   -0.4150   -8.3600 hc        1 2W1      0.052950
     49 H20         7.2430    0.5900   -6.8520 hc        1 2W1      0.052950
     50 H21         2.1680   -1.8230   -4.2260 ha        1 2W1      0.153000
     51 H22         0.8490   -1.6350   -2.1050 ha        1 2W1      0.152500
@<TRIPOS>BOND
     1    1    2 2   
     2    2    3 1   
     3    2   12 1   
     4    3    4 1   
     5    3   11 2   
     6    4    5 1   
     7    4   31 1   
     8    5    6 ar  
     9    5   10 ar  
    10    6    7 ar  
    11    6   32 1   
    12    7    8 ar  
    13    7   33 1   
    14    8    9 ar  
    15    8   34 1   
    16    9   10 ar  
    17    9   35 1   
    18   10   11 1   
    19   12   13 ar  
    20   12   30 ar  
    21   13   14 ar  
    22   13   36 1   
    23   14   15 ar  
    24   14   37 1   
    25   15   16 1   
    26   15   29 ar  
    27   16   17 1   
    28   17   18 ar  
    29   17   22 ar  
    30   18   19 ar  
    31   19   20 ar  
    32   19   38 1   
    33   20   21 ar  
    34   20   39 1   
    35   21   22 ar  
    36   21   40 1   
    37   22   23 1   
    38   23   24 1   
    39   23   28 1   
    40   23   41 1   
    41   24   25 1   
    42   24   42 1   
    43   24   43 1   
    44   25   26 1   
    45   25   44 1   
    46   25   45 1   
    47   26   27 1   
    48   27   28 1   
    49   27   46 1   
    50   27   47 1   
    51   28   48 1   
    52   28   49 1   
    53   29   30 ar  
    54   29   50 1   
    55   30   51 1   
@<TRIPOS>SUBSTRUCTURE
     1 2W1         1 TEMP              0 ****  ****    0 ROOT
