@<TRIPOS>MOLECULE
molecule
   51    55     1     0     0
SMALL
bcc


@<TRIPOS>ATOM
      1 O01          0.0000     0.0000     0.0000 o          1 2W1      -0.531100
      2 C02          1.2160     0.0000     0.0000 c          1 2W1       0.544400
      3 C03          1.9550     0.0000     1.2790 cc         1 2W1       0.355800
      4 N04          1.3830    -0.1010     2.5210 na         1 2W1      -0.227300
      5 C05          2.4050    -0.0630     3.4410 ca         1 2W1      -0.083200
      6 C06          2.4590    -0.1220     4.8280 ca         1 2W1      -0.129000
      7 C07          3.6760    -0.0550     5.4680 ca         1 2W1      -0.103000
      8 C08          4.8520     0.0690     4.7370 ca         1 2W1      -0.145000
      9 C09          4.8230     0.1300     3.3750 ca         1 2W1      -0.065000
     10 C10          3.5960     0.0640     2.7000 ca         1 2W1       0.081400
     11 N11          3.2560     0.0920     1.3990 nd         1 2W1      -0.580100
     12 C12          1.9530    -0.0060    -1.2770 ca         1 2W1      -0.179600
     13 C13          3.3470     0.1160    -1.2830 ca         1 2W1      -0.064000
     14 C14          4.0310     0.1090    -2.4770 ca         1 2W1      -0.150500
     15 C15          3.3390    -0.0180    -3.6770 ca         1 2W1       0.148100
     16 O16          4.0170    -0.0240    -4.8510 os         1 2W1      -0.366400
     17 C17          4.6970    -1.1490    -5.1890 ca         1 2W1       0.654600
     18 N18          4.7570    -2.1590    -4.3370 nb         1 2W1      -0.751000
     19 C19          5.4080    -3.2700    -4.6250 ca         1 2W1       0.455200
     20 C20          6.0540    -3.4180    -5.8360 ca         1 2W1      -0.287300
     21 C21          6.0140    -2.3810    -6.7580 ca         1 2W1      -0.063000
     22 C22          5.3190    -1.2310    -6.4290 ca         1 2W1      -0.208600
     23 C23          5.2430    -0.0810    -7.3990 c3         1 2W1      -0.018400
     24 C24          4.5690    -0.5460    -8.6940 c3         1 2W1      -0.111400
     25 C25          4.5670     0.6060    -9.7020 c3         1 2W1       0.137400
     26 O26          5.9100     1.0380    -9.9330 os         1 2W1      -0.423600
     27 C27          6.5740     1.5290    -8.7660 c3         1 2W1       0.137400
     28 C28          6.6560     0.4120    -7.7200 c3         1 2W1      -0.111400
     29 C29          1.9540    -0.1410    -3.6760 ca         1 2W1      -0.150500
     30 C30          1.2620    -0.1410    -2.4860 ca         1 2W1      -0.064000
     31 H1           0.4280    -0.3340     2.7120 hn         1 2W1       0.319700
     32 H2           1.5460    -0.2190     5.4040 ha         1 2W1       0.131000
     33 H3           3.7180    -0.1020     6.5500 ha         1 2W1       0.136000
     34 H4           5.8010     0.1200     5.2560 ha         1 2W1       0.136000
     35 H5           5.7460     0.2270     2.8160 ha         1 2W1       0.143000
     36 H7           3.8870     0.2160    -0.3490 ha         1 2W1       0.174500
     37 H8           5.1100     0.2040    -2.4830 ha         1 2W1       0.145500
     38 H9           5.4350    -4.0760    -3.9020 h4         1 2W1       0.026100
     39 H10          6.5880    -4.3330    -6.0640 ha         1 2W1       0.141000
     40 H11          6.5100    -2.4730    -7.7170 ha         1 2W1       0.148000
     41 H12          4.6680     0.7290    -6.9650 hc         1 2W1       0.074700
     42 H13          5.1190    -1.3840    -9.1060 hc         1 2W1       0.052700
     43 H14          3.5490    -0.8440    -8.4840 hc         1 2W1       0.052700
     44 H15          3.9880     1.4300    -9.3050 h1         1 2W1       0.047700
     45 H16          4.1330     0.2680   -10.6350 h1         1 2W1       0.047700
     46 H17          7.5740     1.8500    -9.0300 h1         1 2W1       0.047700
     47 H18          6.0160     2.3630    -8.3590 h1         1 2W1       0.047700
     48 H19          7.2440    -0.4080    -8.1140 hc         1 2W1       0.052700
     49 H20          7.1180     0.7960    -6.8190 hc         1 2W1       0.052700
     50 H21          1.4190    -0.2430    -4.6120 ha         1 2W1       0.145500
     51 H22          0.1830    -0.2370    -2.4860 ha         1 2W1       0.174500
@<TRIPOS>BOND
     1     9     8 ar  
     2     9    10 ar  
     3     8     7 ar  
     4    10    11 1   
     5    10     5 ar  
     6    11     3 2   
     7     7     6 ar  
     8     1     2 2   
     9     5     6 ar  
    10     5     4 1   
    11     3     2 1   
    12     3     4 1   
    13     2    12 1   
    14    12    30 ar  
    15    12    13 ar  
    16    30    29 ar  
    17    13    14 ar  
    18    29    15 ar  
    19    14    15 ar  
    20    15    16 1   
    21    16    17 1   
    22    28    27 1   
    23    28    23 1   
    24    27    26 1   
    25    26    25 1   
    26    17    18 ar  
    27    17    22 ar  
    28    18    19 ar  
    29    23    22 1   
    30    23    24 1   
    31    22    21 ar  
    32    19    20 ar  
    33    24    25 1   
    34    21    20 ar  
    35     4    31 1   
    36     6    32 1   
    37     7    33 1   
    38     8    34 1   
    39     9    35 1   
    40    13    36 1   
    41    14    37 1   
    42    19    38 1   
    43    20    39 1   
    44    21    40 1   
    45    23    41 1   
    46    24    42 1   
    47    24    43 1   
    48    25    44 1   
    49    25    45 1   
    50    27    46 1   
    51    27    47 1   
    52    28    48 1   
    53    28    49 1   
    54    29    50 1   
    55    30    51 1   
@<TRIPOS>SUBSTRUCTURE
     1 2W1         1 TEMP              0 ****  ****    0 ROOT
