@<TRIPOS>MOLECULE
molecule
   39    38     1     0     0
SMALL
bcc


@<TRIPOS>ATOM
      1 OXT          0.0000     0.0000     0.0000 o          1 2W2      -0.808800
      2 CAQ          3.8750     2.7800    -4.8270 c          1 2W2       0.893600
      3 CAM          4.0340     2.6060    -2.3580 c3         1 2W2      -0.057400
      4 CAU          3.3500     2.0610    -1.1020 c3         1 2W2       0.090500
      5 OAC          3.3450     2.5430    -6.0360 o          1 2W2      -0.880300
      6 OAF          4.8610     3.4700    -4.7240 o          1 2W2      -0.880300
      7 CAS          4.0440     2.5990     0.1220 c          1 2W2       0.914600
      8 OAH          3.6720     3.7810     0.6400 o          1 2W2      -0.826300
      9 OAE          4.9350     1.9670     0.6370 o          1 2W2      -0.826300
     10 N            3.4240     0.5940    -1.1020 n7         1 2W2      -0.958200
     11 CA           2.0960     0.0000    -1.3050 c3         1 2W2       0.108500
     12 C            1.3420     0.0000     0.0000 c          1 2W2       0.852600
     13 O            1.9450     0.0000     1.0470 o          1 2W2      -0.808800
     14 CB           2.2510    -1.4370    -1.8040 c3         1 2W2      -0.190400
     15 CG           2.9060    -1.4290    -3.1870 c3         1 2W2      -0.070400
     16 CD           3.0610    -2.8670    -3.6870 c3         1 2W2       0.228800
     17 NE           3.6870    -2.8600    -5.0110 nu         1 2W2      -0.824200
     18 CZ           3.9290    -4.0440    -5.6650 c2         1 2W2       0.681100
     19 NH2          4.5170    -4.0370    -6.9070 nz         1 2W2      -0.810600
     20 NH1          3.6010    -5.1750    -5.1050 n2         1 2W2      -0.858100
     21 H2           2.2200     2.5400    -3.5080 hc         1 2W2       0.022200
     22 H3           3.2400     1.1050    -3.6740 hc         1 2W2       0.022200
     23 H4           4.0750     3.6880    -2.3060 hc         1 2W2       0.060700
     24 H5           5.0400     2.2090    -2.4220 hc         1 2W2       0.060700
     25 H6           2.3120     2.3700    -1.0930 h1         1 2W2       0.025700
     26 H9           2.6580     1.2340    -1.0250 hn         1 2W2       0.531800
     27 H11          1.5480     0.5800    -2.0380 h1         1 2W2      -0.011300
     28 H12          1.5940    -0.7490    -2.3210 hc         1 2W2       0.087200
     29 H13          1.5740    -2.2310    -1.5120 hc         1 2W2       0.087200
     30 H14          2.2840    -0.8720    -3.8780 hc         1 2W2       0.059700
     31 H15          3.8810    -0.9620    -3.1220 hc         1 2W2       0.059700
     32 H16          2.0850    -3.3340    -3.7520 h1         1 2W2       0.059700
     33 H17          3.6830    -3.4250    -2.9970 h1         1 2W2       0.059700
     34 H18          3.9500    -1.9920    -5.4350 hn         1 2W2       0.465800
     35 H19          5.3770    -3.5270    -6.8660 hn         1 2W2       0.412133
     36 H20          4.7000    -4.9770    -7.1960 hn         1 2W2       0.412133
     37 H21          3.7760    -6.0380    -5.5800 hn         1 2W2       0.395400
     38 HH23         3.9020    -3.6000    -7.5650 hn         1 2W2       0.412133
     39 CAK          3.2400     2.1850    -3.5950 c3         1 2W2      -0.194400
@<TRIPOS>BOND
     1    20    18 2
     2    19    18 1
     3    18    17 1
     4    17    16 1
     5    16    15 1
     6    15    14 1
     7    14    11 1
     8    13    12 1
     9    12    11 1
    10    12     1 1
    11    11    10 1
    12    10     4 1
    13     4     7 1
    14     4     3 1
    15     9     7 1
    16     7     8 1
    17     3    39 1
    18     5     2 1
    19    39     2 1
    20     2     6 1
    21    39    21 1
    22    39    22 1
    23     3    23 1
    24     3    24 1
    25     4    25 1
    26    10    26 1
    27    11    27 1
    28    14    28 1
    29    14    29 1
    30    15    30 1
    31    15    31 1
    32    16    32 1
    33    16    33 1
    34    17    34 1
    35    19    35 1
    36    19    36 1
    37    20    37 1
    38    38    19 1
@<TRIPOS>SUBSTRUCTURE
     1 2W2         1 TEMP              0 ****  ****    0 ROOT
