@<TRIPOS>MOLECULE
2W2
   39    39     1     0     0
SMALL
bcc


@<TRIPOS>ATOM
      1 OXT          0.0000     0.0000     0.0000 o          1 2W2      -0.596500
      2 CAQ          3.8750     2.7800    -4.8270 c2         1 2W2       0.405000
      3 CAM          4.0340     2.6060    -2.3580 c3         1 2W2      -0.100000
      4 CAU          3.3500     2.0610    -1.1020 DU         1 2W2      -0.004000
      5 OAC          3.3450     2.5430    -6.0360 o          1 2W2      -0.663500
      6 OAF          4.8610     3.4700    -4.7240 o          1 2W2      -0.663500
      7 CAS          4.0440     2.5990     0.1220 c2         1 2W2       0.414000
      8 OAH          3.6720     3.7810     0.6400 o          1 2W2      -0.609500
      9 OAE          4.9350     1.9670     0.6370 o          1 2W2      -0.609500
     10 N            3.4240     0.5940    -1.1020 n7         1 2W2      -0.515000
     11 CA           2.0960     0.0000    -1.3050 c3         1 2W2       0.019000
     12 C            1.3420     0.0000     0.0000 c2         1 2W2       0.346000
     13 O            1.9450     0.0000     1.0470 o          1 2W2      -0.596500
     14 CB           2.2510    -1.4370    -1.8040 c3         1 2W2      -0.261000
     15 CG           2.9060    -1.4290    -3.1870 c3         1 2W2      -0.079000
     16 CD           3.0610    -2.8670    -3.6870 c3         1 2W2      -0.092000
     17 NE           3.6870    -2.8600    -5.0110 n7         1 2W2       0.074000
     18 CZ           3.9290    -4.0440    -5.6650 c2         1 2W2      -0.320000
     19 NH2          4.5170    -4.0370    -6.9070 nz         1 2W2       0.877000
     20 NH1          3.6010    -5.1750    -5.1050 n2         1 2W2      -0.228000
     21 H2           2.2200     2.5400    -3.5080 hc         1 2W2       0.042500
     22 H3           3.2400     1.1050    -3.6740 hc         1 2W2       0.042500
     23 H4           5.0400     2.2090    -2.4220 hc         1 2W2       0.075500
     24 H5           4.0750     3.6880    -2.3060 hc         1 2W2       0.075500
     25 H6           2.3120     2.3700    -1.0930 ha         1 2W2       0.045000
     26 H9           2.6580     1.2340    -1.0250 DU         1 2W2       0.327000
     27 H11          1.5480     0.5800    -2.0380 h1         1 2W2       0.017000
     28 H12          1.5940    -0.7490    -2.3210 hc         1 2W2       0.104000
     29 H13          1.5740    -2.2310    -1.5120 hc         1 2W2       0.104000
     30 H14          3.8810    -0.9620    -3.1220 hc         1 2W2       0.078500
     31 H15          2.2840    -0.8720    -3.8780 hc         1 2W2       0.078500
     32 H16          2.0850    -3.3340    -3.7520 h1         1 2W2       0.064500
     33 H17          3.6830    -3.4250    -2.9970 h1         1 2W2       0.064500
     34 H18          3.9620    -1.9930    -5.4300 hn         1 2W2       0.118000
     35 H19          4.6060    -4.9760    -7.2400 hn         1 2W2       0.003333
     36 H20          5.4230    -3.6170    -6.8440 hn         1 2W2       0.003333
     37 H21          3.1730    -5.1810    -4.2010 hn         1 2W2       0.142000
     38 HH23         3.9490    -3.5110    -7.5420 hn         1 2W2       0.003333
     39 CAK          3.2400     2.1850    -3.5950 c3         1 2W2      -0.184000
@<TRIPOS>BOND
     1     1    12 1   
     2     2     5 1   
     3     2     6 1   
     4     2    39 1   
     5     3     4 1   
     6     3    23 1   
     7     3    24 1   
     8     3    39 1   
     9     4     7 1   
    10     4    10 1   
    11     4    25 1   
    12     4    26 1   
    13     7     8 1   
    14     7     9 1   
    15    10    11 1   
    16    10    26 1   
    17    11    12 1   
    18    11    14 1   
    19    11    27 1   
    20    12    13 1   
    21    14    15 1   
    22    14    28 1   
    23    14    29 1   
    24    15    16 1   
    25    15    30 1   
    26    15    31 1   
    27    16    17 1   
    28    16    32 1   
    29    16    33 1   
    30    17    18 1   
    31    17    34 1   
    32    18    19 1   
    33    18    20 1   
    34    19    35 1   
    35    19    36 1   
    36    19    38 1   
    37    20    37 1   
    38    21    39 1   
    39    22    39 1   
@<TRIPOS>SUBSTRUCTURE
     1 2W2         1 TEMP              0 ****  ****    0 ROOT
