@<TRIPOS>MOLECULE
molecule
   64    67     1     0     0
SMALL
bcc


@<TRIPOS>ATOM
      1 C1           0.0000     0.0000     0.0000 c3         1 2W3      -0.086100
      2 C2           1.5300     0.0000     0.0000 c3         1 2W3      -0.134700
      3 C3           2.0330     0.0000     1.4210 ca         1 2W3       0.483600
      4 N6           2.9070     0.0390     3.9710 nb         1 2W3      -0.757000
      5 C7           2.0720     0.9460     3.5160 ca         1 2W3       0.730300
      6 C9           1.5880     2.0280     4.4470 c3         1 2W3      -0.082000
      7 C11          0.8570     1.3940     5.6310 c3         1 2W3      -0.085400
      8 C12          0.3660     2.4930     6.5760 c3         1 2W3      -0.100400
      9 C13          1.5640     3.2970     7.0890 c3         1 2W3      -0.071400
     10 C14          2.2960     3.9310     5.9040 c3         1 2W3      -0.074400
     11 C15          2.7860     2.8320     4.9590 c3         1 2W3      -0.141700
     12 C21          6.4800     5.6160     3.3760 ca         1 2W3      -0.118300
     13 C22          7.7130     5.0070     3.5140 ca         1 2W3      -0.114000
     14 C24          8.6450     7.0680     4.3000 ca         1 2W3       0.035400
     15 C32          5.5710    -2.7920     5.4830 c          1 2W3       0.731700
     16 C34          6.0370    -3.8200     4.6220 cc         1 2W3      -0.481400
     17 C35          5.5790    -3.8350     3.2960 cd         1 2W3       0.530700
     18 C4           2.9190    -0.9760     1.8520 ca         1 2W3      -0.297600
     19 C5           3.3550    -0.9330     3.1780 ca         1 2W3       0.357000
     20 N8           1.6400     0.9350     2.2700 nb         1 2W3      -0.656000
     21 C17          3.5070     3.4570     3.7920 c          1 2W3       0.651100
     22 O18          3.1030     3.2780     2.6630 o          1 2W3      -0.603100
     23 N19          4.6000     4.2160     4.0050 ns         1 2W3      -0.583900
     24 C23          8.7960     5.7320     3.9750 ca         1 2W3      -0.111000
     25 C25          7.4110     7.6790     4.1570 ca         1 2W3       0.032400
     26 C26          6.3290     6.9530     3.6940 ca         1 2W3      -0.100000
     27 Cl7          7.2200     9.3560     4.5630 cl         1 2W3      -0.066400
     28 Cl8         10.0040     7.9800     4.8810 cl         1 2W3      -0.069400
     29 C29          4.3020    -1.9500     3.6930 cc         1 2W3       0.575900
     30 N30          4.7080    -1.8780     4.9890 ns         1 2W3      -0.416400
     31 N36          4.7270    -2.8950     2.8840 nd         1 2W3      -0.730300
     32 C38          6.9750    -4.8390     5.1050 c          1 2W3       0.543300
     33 O39          7.2830    -5.7720     4.3870 o          1 2W3      -0.437100
     34 N40          7.4950    -4.7420     6.3450 nz         1 2W3      -0.667400
     35 H1          -0.3610    -0.2490    -0.9900 hc         1 2W3       0.048367
     36 H2          -0.3610    -0.7330     0.7110 hc         1 2W3       0.048367
     37 H3          -0.3610     0.9820     0.2790 hc         1 2W3       0.048367
     38 H4           1.8910    -0.8840    -0.5110 hc         1 2W3       0.069200
     39 H5           1.8910     0.8840    -0.5110 hc         1 2W3       0.069200
     40 H6           0.9120     2.6890     3.9190 hc         1 2W3       0.106700
     41 H7           0.0080     0.8270     5.2670 hc         1 2W3       0.046700
     42 H8           1.5350     0.7370     6.1630 hc         1 2W3       0.046700
     43 H9           0.0420     2.9880     5.6690 hc         1 2W3       0.065200
     44 H10         -0.4120     2.2180     7.2780 hc         1 2W3       0.065200
     45 H11          1.2150     4.0760     7.7560 hc         1 2W3       0.049700
     46 H12          2.2400     2.6370     7.6180 hc         1 2W3       0.049700
     47 H13          3.1440     4.4980     6.2670 hc         1 2W3       0.056200
     48 H14          1.6170     4.5870     5.3710 hc         1 2W3       0.056200
     49 H15          3.4590     2.1730     5.4940 hc         1 2W3       0.070700
     50 H16          4.6250     5.4830     2.3400 h1         1 2W3       0.065700
     51 H17          5.6490     4.0460     2.2020 h1         1 2W3       0.065700
     52 H18          7.6380     3.9520     3.7470 ha         1 2W3       0.136000
     53 H20          3.2630    -1.7520     1.1790 ha         1 2W3       0.172000
     54 H21          4.9530     4.3360     4.9340 hn         1 2W3       0.318500
     55 H22          9.7610     5.2530     4.0850 ha         1 2W3       0.154000
     56 H23          5.3630     7.4310     3.5820 ha         1 2W3       0.158000
     57 H24          4.3660    -1.1450     5.5780 hn         1 2W3       0.390500
     58 H25          8.1400    -5.4930     6.4960 hn         1 2W3       0.478800
     59 H26          6.7590    -4.7940     7.0210 hn         1 2W3       0.478800
     60 H19          6.0730    -4.4320     1.5750 ho         1 2W3       0.472000
     61 O33          5.9350    -2.7400     6.6450 o          1 2W3      -0.686500
     62 C20          5.3010     4.8240     2.8710 c3         1 2W3       0.160300
     63 H403         7.9790    -3.8710     6.4370 hn         1 2W3       0.478800
     64 O37          5.9970    -4.7940     2.4430 oh         1 2W3      -0.424100
@<TRIPOS>BOND
     1    34    32 1   
     2    61    15 2   
     3    32    33 2   
     4    32    16 1   
     5    28    14 1   
     6    15    16 1   
     7    15    30 1   
     8    16    17 2   
     9    30    29 1   
    10    14    24 ar  
    11    14    25 ar  
    12    17    64 1   
    13    17    31 1   
    14    24    13 ar  
    15    27    25 1   
    16    29    31 2   
    17    29    19 1   
    18    25    26 ar  
    19    18    19 ar  
    20    18     3 ar  
    21    13    12 ar  
    22    19     4 ar  
    23    26    12 ar  
    24     2     3 1   
    25     2     1 1   
    26    12    62 1   
    27     3    20 ar  
    28     4     5 ar  
    29    62    23 1   
    30    20     5 ar  
    31     5     6 1   
    32    23    21 1   
    33    21    22 2   
    34    21    11 1   
    35     6    11 1   
    36     6     7 1   
    37    11    10 1   
    38     7     8 1   
    39    10     9 1   
    40     8     9 1   
    41     1    35 1   
    42     1    36 1   
    43     1    37 1   
    44     2    38 1   
    45     2    39 1   
    46     6    40 1   
    47     7    41 1   
    48     7    42 1   
    49     8    43 1   
    50     8    44 1   
    51     9    45 1   
    52     9    46 1   
    53    10    47 1   
    54    10    48 1   
    55    11    49 1   
    56    62    50 1   
    57    62    51 1   
    58    13    52 1   
    59    18    53 1   
    60    23    54 1   
    61    24    55 1   
    62    26    56 1   
    63    30    57 1   
    64    34    58 1   
    65    34    59 1   
    66    64    60 1   
    67    63    34 1   
@<TRIPOS>SUBSTRUCTURE
     1 2W3         1 TEMP              0 ****  ****    0 ROOT
