@<TRIPOS>MOLECULE
2W3
   64    67     1     0     0
SMALL
bcc


@<TRIPOS>ATOM
      1 C1           0.0000     0.0000     0.0000 c3         1 2W3       0.011900
      2 C2           1.5300     0.0000     0.0000 c3         1 2W3      -0.075700
      3 C3           2.0330     0.0000     1.4210 ca         1 2W3       0.419600
      4 N6           2.9070     0.0390     3.9710 nb         1 2W3      -0.628000
      5 C7           2.0720     0.9460     3.5160 ca         1 2W3       0.632300
      6 C9           1.5880     2.0280     4.4470 c3         1 2W3      -0.076000
      7 C11          0.8570     1.3940     5.6310 c3         1 2W3      -0.032400
      8 C12          0.3660     2.4930     6.5760 c3         1 2W3      -0.057400
      9 C13          1.5640     3.2970     7.0890 c3         1 2W3      -0.009400
     10 C14          2.2960     3.9310     5.9040 c3         1 2W3      -0.019400
     11 C15          2.7860     2.8320     4.9590 c3         1 2W3      -0.119700
     12 C21          6.4800     5.6160     3.3760 ca         1 2W3      -0.128300
     13 C22          7.7130     5.0070     3.5140 ca         1 2W3      -0.085000
     14 C24          8.6450     7.0680     4.3000 ca         1 2W3      -0.038600
     15 C32          5.5710    -2.7920     5.4830 c          1 2W3       0.643700
     16 C34          6.0370    -3.8200     4.6220 cc         1 2W3      -0.531400
     17 C35          5.5790    -3.8350     3.2960 cd         1 2W3       0.520700
     18 C4           2.9190    -0.9760     1.8520 ca         1 2W3      -0.252600
     19 C5           3.3550    -0.9330     3.1780 ca         1 2W3       0.278000
     20 N8           1.6400     0.9350     2.2700 nb         1 2W3      -0.512000
     21 C17          3.5070     3.4570     3.7920 c          1 2W3       0.565100
     22 O18          3.1030     3.2780     2.6630 o          1 2W3      -0.648100
     23 N19          4.6000     4.2160     4.0050 ns         1 2W3      -0.195900
     24 C23          8.7960     5.7320     3.9750 ca         1 2W3      -0.083000
     25 C25          7.4110     7.6790     4.1570 ca         1 2W3      -0.040600
     26 C26          6.3290     6.9530     3.6940 ca         1 2W3      -0.073000
     27 Cl7          7.2200     9.3560     4.5630 cl         1 2W3       0.021600
     28 Cl8         10.0040     7.9800     4.8810 cl         1 2W3       0.017600
     29 C29          4.3020    -1.9500     3.6930 cc         1 2W3       0.370900
     30 N30          4.7080    -1.8780     4.9890 ns         1 2W3       0.080600
     31 N36          4.7270    -2.8950     2.8840 nd         1 2W3      -0.635300
     32 C38          6.9750    -4.8390     5.1050 c          1 2W3       0.406300
     33 O39          7.2830    -5.7720     4.3870 o          1 2W3      -0.461100
     34 N40          7.4950    -4.7420     6.3450 nz         1 2W3       0.195600
     35 H1          -0.3610    -0.2490    -0.9900 hc         1 2W3       0.011367
     36 H2          -0.3610    -0.7330     0.7110 hc         1 2W3       0.011367
     37 H3          -0.3610     0.9820     0.2790 hc         1 2W3       0.011367
     38 H4           1.8910    -0.8840    -0.5110 hc         1 2W3       0.032200
     39 H5           1.8910     0.8840    -0.5110 hc         1 2W3       0.032200
     40 H6           0.9120     2.6890     3.9190 hc         1 2W3       0.075700
     41 H7           0.0080     0.8270     5.2670 hc         1 2W3       0.015700
     42 H8           1.5350     0.7370     6.1630 hc         1 2W3       0.015700
     43 H9           0.0420     2.9880     5.6690 hc         1 2W3       0.039700
     44 H10         -0.4120     2.2180     7.2780 hc         1 2W3       0.039700
     45 H11          1.2150     4.0760     7.7560 hc         1 2W3       0.018700
     46 H12          2.2400     2.6370     7.6180 hc         1 2W3       0.018700
     47 H13          3.1440     4.4980     6.2670 hc         1 2W3       0.025200
     48 H14          1.6170     4.5870     5.3710 hc         1 2W3       0.025200
     49 H15          3.4590     2.1730     5.4940 hc         1 2W3       0.041700
     50 H16          4.6250     5.4830     2.3400 h1         1 2W3       0.034200
     51 H17          5.6490     4.0460     2.2020 h1         1 2W3       0.034200
     52 H18          7.6380     3.9520     3.7470 ha         1 2W3       0.103000
     53 H20          3.2630    -1.7520     1.1790 ha         1 2W3       0.145000
     54 H21          4.9530     4.3360     4.9340 hn         1 2W3       0.180500
     55 H22          9.7610     5.2530     4.0850 ha         1 2W3       0.120000
     56 H23          5.3630     7.4310     3.5820 ha         1 2W3       0.125000
     57 H24          4.3660    -1.1450     5.5780 hn         1 2W3       0.225500
     58 H25          8.1400    -5.4930     6.4960 hn         1 2W3       0.251467
     59 H26          6.7590    -4.7940     7.0210 hn         1 2W3       0.251467
     60 H19          6.0730    -4.4320     1.5750 ho         1 2W3       0.444000
     61 O33          5.9350    -2.7400     6.6450 o          1 2W3      -0.741500
     62 C20          5.3010     4.8240     2.8710 c3         1 2W3       0.112300
     63 H403         7.9790    -3.8710     6.4370 hn         1 2W3       0.251467
     64 O37          5.9970    -4.7940     2.4430 oh         1 2W3      -0.413100
@<TRIPOS>BOND
     1     1     2 1   
     2     1    35 1   
     3     1    36 1   
     4     1    37 1   
     5     2     3 1   
     6     2    38 1   
     7     2    39 1   
     8     3    18 ar  
     9     3    20 ar  
    10     4     5 ar  
    11     4    19 ar  
    12     5     6 1   
    13     5    20 ar  
    14     6     7 1   
    15     6    11 1   
    16     6    40 1   
    17     7     8 1   
    18     7    41 1   
    19     7    42 1   
    20     8     9 1   
    21     8    43 1   
    22     8    44 1   
    23     9    10 1   
    24     9    45 1   
    25     9    46 1   
    26    10    11 1   
    27    10    47 1   
    28    10    48 1   
    29    11    21 1   
    30    11    49 1   
    31    12    13 ar  
    32    12    26 ar  
    33    12    62 1   
    34    13    24 ar  
    35    13    52 1   
    36    14    24 ar  
    37    14    25 ar  
    38    14    28 1   
    39    15    16 1   
    40    15    30 1   
    41    15    61 2   
    42    16    17 2   
    43    16    32 1   
    44    17    31 1   
    45    17    64 1   
    46    18    19 ar  
    47    18    53 1   
    48    19    29 1   
    49    21    22 2   
    50    21    23 1   
    51    23    54 1   
    52    23    62 1   
    53    24    55 1   
    54    25    26 ar  
    55    25    27 1   
    56    26    56 1   
    57    29    30 1   
    58    29    31 2   
    59    30    57 1   
    60    32    33 2   
    61    32    34 1   
    62    34    58 1   
    63    34    59 1   
    64    34    63 1   
    65    50    62 1   
    66    51    62 1   
    67    60    64 1   
@<TRIPOS>SUBSTRUCTURE
     1 2W3         1 TEMP              0 ****  ****    0 ROOT
