@<TRIPOS>MOLECULE
2W4
   56    57     1     0     0
SMALL
bcc


@<TRIPOS>ATOM
      1 N1         -2.1040   -0.0620    0.8960 n         1 2W4     -0.219000
      2 C10        -1.2590   -1.2520    0.7490 c2        1 2W4      0.335000
      3 C13        -1.5800   -2.5360   -5.9650 c1        1 2W4     -0.148000
      4 C15        -2.8640    0.1770   -2.6110 c1        1 2W4      0.164000
      5 C17        -3.2530   -0.8120   -6.4450 ca        1 2W4     -0.049000
      6 C20        -5.1430    0.7380   -7.9800 ca        1 2W4      0.295000
      7 C21        -4.7310   -1.0080  -11.1030 c2        1 2W4     -0.180000
      8 C22        -4.5530   -0.7060   -9.8570 c1        1 2W4     -0.042000
      9 C24        -3.4500   -1.1220   -7.7520 ca        1 2W4     -0.089000
     10 O01        -3.1470    1.9560    7.3680 o         1 2W4     -0.363000
     11 C02        -2.4910    0.4470    9.1360 c3        1 2W4     -0.204000
     12 C03        -1.9700    1.5560   11.3490 c1        1 2W4     -0.049000
     13 C04        -2.2400    1.7060    9.9430 c3        1 2W4     -0.251000
     14 N01        -3.0570   -0.2560    6.8020 n         1 2W4     -0.341000
     15 C05        -2.6350   -1.5880    7.1180 c3        1 2W4     -0.076000
     16 C06        -1.1810   -0.5430    4.2860 c3        1 2W4     -0.104000
     17 C07        -2.2610    0.5510    4.5610 c3        1 2W4     -0.105000
     18 C08        -2.7670    0.9180    3.1880 c2        1 2W4     -0.171000
     19 C09        -1.9930    0.3050    2.2610 c2        1 2W4     -0.020000
     20 N02        -0.8180   -0.3990    2.8530 na        1 2W4     -0.094000
     21 N03        -0.5300   -1.4690    2.0170 n         1 2W4     -0.160000
     22 O02        -1.1360   -1.9250   -0.2680 o         1 2W4     -0.219000
     23 C11        -2.7060    0.6920   -0.0680 c2        1 2W4      0.321000
     24 C12        -0.8240   -3.5320   -6.3060 c2        1 2W4     -0.186000
     25 C14        -2.3280   -1.5320   -5.5850 c2        1 2W4     -0.089000
     26 C16        -2.7750    0.4070   -1.3730 c1        1 2W4     -0.627000
     27 C18        -3.9890    0.2890   -5.8470 ca        1 2W4     -0.056000
     28 C19        -4.8700    1.0110   -6.5640 ca        1 2W4     -0.238000
     29 O1         -5.9610    1.4080   -8.6290 o         1 2W4     -0.308000
     30 C23        -4.3820   -0.3870   -8.5870 ca        1 2W4     -0.110000
     31 C1         -3.4140    0.0550    5.4390 c3        1 2W4     -0.015000
     32 H1         -1.1570   -4.5780   -6.2250 ha        1 2W4      0.129500
     33 H2         -2.2790   -1.1730   -4.5330 ha        1 2W4      0.179000
     34 H3         -4.1340   -0.5520  -11.9080 ha        1 2W4      0.149000
     35 H4         -5.4940   -1.7300  -11.4290 ha        1 2W4      0.149000
     36 H5         -2.9010   -1.9530   -8.2250 ha        1 2W4      0.139000
     37 H6         -3.3070   -0.1570    9.6150 hc        1 2W4      0.106000
     38 H7         -1.5620   -0.1830    9.1170 hc        1 2W4      0.106000
     39 H8         -2.0100    0.5360   11.7640 ha        1 2W4      0.036000
     40 H9         -1.3840    2.2910    9.4900 hc        1 2W4      0.169500
     41 H10        -3.1310    2.4030    9.8560 hc        1 2W4      0.169500
     42 H11        -3.0030   -1.8790    8.1390 h1        1 2W4      0.079333
     43 H12        -1.5130   -1.6750    7.1030 h1        1 2W4      0.079333
     44 H13        -3.0570   -2.3140    6.3730 h1        1 2W4      0.079333
     45 H14        -1.5690   -1.5630    4.5540 h1        1 2W4      0.106000
     46 H15        -0.2460   -0.3430    4.8710 h1        1 2W4      0.106000
     47 H16        -1.7760    1.4420    5.0470 hc        1 2W4      0.143000
     48 H17        -3.6160    1.5820    3.0350 ha        1 2W4      0.172000
     49 H18        -0.7550   -2.3810    2.4000 hn        1 2W4      0.182000
     50 H19         0.1970   -3.3920   -6.6910 ha        1 2W4      0.129500
     51 H20        -3.1950    1.6100    0.3400 h4        1 2W4      0.153000
     52 H21        -3.7900    0.5030   -4.7790 ha        1 2W4      0.170000
     53 H22        -5.4340    1.8480   -6.1240 ha        1 2W4      0.149000
     54 H23        -4.1940    0.8730    5.4630 h1        1 2W4      0.107000
     55 H24        -3.8730   -0.8600    4.9680 h1        1 2W4      0.107000
     56 C01        -2.9070    0.7840    7.7190 c2        1 2W4      0.301000
@<TRIPOS>BOND
     1    1    2 1
     2    1   19 1
     3    1   23 1
     4    2   21 1
     5    2   22 1
     6    3   24 1
     7    3   25 1
     8    4   26 1
     9    5    9 1
    10    5   25 1
    11    5   27 1
    12    6   28 1
    13    6   29 1
    14    6   30 1
    15    7    8 1
    16    7   34 1
    17    7   35 1
    18    8   30 1
    19    9   30 1
    20    9   36 1
    21   10   56 1
    22   11   13 1
    23   11   37 1
    24   11   38 1
    25   11   56 1
    26   12   13 1
    27   12   39 1
    28   13   40 1
    29   13   41 1
    30   14   15 1
    31   14   31 1
    32   14   56 1
    33   15   42 1
    34   15   43 1
    35   15   44 1
    36   16   17 1
    37   16   20 1
    38   16   45 1
    39   16   46 1
    40   17   18 1
    41   17   31 1
    42   17   47 1
    43   18   19 1
    44   18   48 1
    45   19   20 1
    46   20   21 1
    47   21   49 1
    48   23   26 1
    49   23   51 1
    50   24   32 1
    51   24   50 1
    52   25   33 1
    53   27   28 1
    54   27   52 1
    55   28   53 1
    56   31   54 1
    57   31   55 1
@<TRIPOS>SUBSTRUCTURE
     1 2W4         1 TEMP              0 ****  ****    0 ROOT
