@<TRIPOS>MOLECULE
2W5
   52    54     1     0     0
SMALL
bcc


@<TRIPOS>ATOM
      1 C1          0.1730    2.8620    0.9220 c3        1 2W5      0.119700
      2 C3          2.0150    1.8480    2.0410 ca        1 2W5      0.677100
      3 C7          5.4220   -1.4270    2.8400 c3        1 2W5      0.119700
      4 C9          1.9150    0.4880    3.9150 ca        1 2W5      0.698300
      5 C11         1.2150    0.0450    5.1990 c3        1 2W5     -0.094000
      6 C13         0.6400   -1.3560    5.0110 c3        1 2W5     -0.074400
      7 C14        -0.0100   -1.8510    6.2860 c3        1 2W5     -0.088400
      8 C15        -1.0790   -0.8980    6.7740 c3        1 2W5     -0.081400
      9 C16        -0.5290    0.5020    6.9470 c3        1 2W5     -0.081400
     10 C19         0.6560    2.3760    5.8690 c         1 2W5      0.559100
     11 C22         0.7930    4.7840    5.1370 c3        1 2W5      0.172100
     12 C24        -0.5810    6.8630    4.8970 ca        1 2W5     -0.088000
     13 C30         0.3340    5.8200    2.9090 ca        1 2W5     -0.109000
     14 O2          1.5520    2.9220    1.2980 os        1 2W5     -0.437100
     15 C4          3.2060    1.2420    1.6160 ca        1 2W5     -0.359600
     16 C5          3.7030    0.2110    2.4660 ca        1 2W5      0.677100
     17 O6          4.8650   -0.3680    2.0480 os        1 2W5     -0.437100
     18 N8          3.0690   -0.1760    3.6090 nb        1 2W5     -0.816000
     19 N10         1.3550    1.4940    3.1840 nb        1 2W5     -0.816000
     20 C17         0.0900    0.9920    5.6380 c3        1 2W5     -0.117700
     21 O20         1.4940    2.7110    6.6920 o         1 2W5     -0.419100
     22 N21         0.1060    3.4630    4.9730 n4        1 2W5     -0.681800
     23 C23         0.1540    5.8350    4.2950 ca        1 2W5     -0.174300
     24 C25        -1.1330    7.8730    4.1150 ca        1 2W5     -0.112000
     25 C26        -0.9640    7.8640    2.7240 ca        1 2W5      0.050400
     26 CL7        -1.6480    9.0990    1.8020 cl        1 2W5     -0.011400
     27 C28        -0.2270    6.8290    2.1200 ca        1 2W5      0.012400
     28 CL9         0.0030    6.7820    0.4450 cl        1 2W5     -0.029400
     29 H1         -0.0620    1.8890    0.4290 h1        1 2W5      0.059867
     30 H2          0.0700    3.7140    0.2000 h1        1 2W5      0.059867
     31 H3         -0.4810    3.0190    1.8130 h1        1 2W5      0.059867
     32 H4          6.3440   -1.6980    2.2630 h1        1 2W5      0.059867
     33 H5          4.7130   -2.2860    2.8940 h1        1 2W5      0.059867
     34 H6          5.6800   -1.0550    3.8600 h1        1 2W5      0.059867
     35 H7          1.9900    0.0160    6.0210 hc        1 2W5      0.105700
     36 H8         -0.1100   -1.3460    4.1770 hc        1 2W5      0.070200
     37 H9          1.4660   -2.0590    4.7200 hc        1 2W5      0.070200
     38 H10        -0.4660   -2.8590    6.0980 hc        1 2W5      0.065700
     39 H11         0.7710   -1.9800    7.0810 hc        1 2W5      0.065700
     40 H12        -1.4830   -1.2550    7.7580 hc        1 2W5      0.062700
     41 H13        -1.9330   -0.8820    6.0460 hc        1 2W5      0.062700
     42 H14        -1.3530    1.1970    7.2550 hc        1 2W5      0.064200
     43 H15         0.2500    0.5100    7.7560 hc        1 2W5      0.064200
     44 H16         0.7600    5.0600    6.2310 hx        1 2W5      0.115700
     45 H17         1.8740    4.6400    4.8440 hx        1 2W5      0.115700
     46 H20         3.7300    1.5390    0.6990 ha        1 2W5      0.201000
     47 H21        -0.7100    1.0020    4.8450 hc        1 2W5      0.094700
     48 H22         0.2050    3.1500    3.9900 hn        1 2W5      0.469300
     49 H23        -1.7030    8.6880    4.5930 ha        1 2W5      0.175000
     50 H18        -0.7120    6.8900    5.9900 ha        1 2W5      0.151000
     51 H212       -0.8940    3.5720    5.1690 hn        1 2W5      0.469300
     52 H19         0.9300    5.0230    2.4290 ha        1 2W5      0.163000
@<TRIPOS>BOND
     1    1   14 1   
     2    1   29 1   
     3    1   30 1   
     4    1   31 1   
     5    2   14 1   
     6    2   15 ar  
     7    2   19 ar  
     8    3   17 1   
     9    3   32 1   
    10    3   33 1   
    11    3   34 1   
    12    4    5 1   
    13    4   18 ar  
    14    4   19 ar  
    15    5    6 1   
    16    5   20 1   
    17    5   35 1   
    18    6    7 1   
    19    6   36 1   
    20    6   37 1   
    21    7    8 1   
    22    7   38 1   
    23    7   39 1   
    24    8    9 1   
    25    8   40 1   
    26    8   41 1   
    27    9   20 1   
    28    9   42 1   
    29    9   43 1   
    30   10   20 1   
    31   10   21 2   
    32   10   22 1   
    33   11   22 1   
    34   11   23 1   
    35   11   44 1   
    36   11   45 1   
    37   12   23 ar  
    38   12   24 ar  
    39   12   50 1   
    40   13   23 ar  
    41   13   27 ar  
    42   13   52 1   
    43   15   16 ar  
    44   15   46 1   
    45   16   17 1   
    46   16   18 ar  
    47   20   47 1   
    48   22   48 1   
    49   22   51 1   
    50   24   25 ar  
    51   24   49 1   
    52   25   26 1   
    53   25   27 ar  
    54   27   28 1   
@<TRIPOS>SUBSTRUCTURE
     1 2W5         1 TEMP              0 ****  ****    0 ROOT
