@<TRIPOS>MOLECULE
molecule
   63    66     1     0     0
SMALL
bcc


@<TRIPOS>ATOM
      1 C1           0.0000     0.0000     0.0000 ca         1 2W6      -0.128500
      2 C2           1.3820     0.0000     0.0000 ca         1 2W6      -0.113500
      3 C3           2.0730     0.0000     1.1980 ca         1 2W6      -0.110300
      4 C4           1.3810     0.0000     2.3950 ca         1 2W6      -0.113500
      5 C5          -0.0020     0.0010     2.3940 ca         1 2W6      -0.128500
      6 C6          -0.6920     0.0000     1.1970 ca         1 2W6      -0.118000
      7 C7           3.5790    -0.0010     1.1980 c3         1 2W6       0.138300
      8 C8           4.0900     1.1220     0.2930 c3         1 2W6      -0.096400
      9 C9           3.6860     2.4750     0.8800 c3         1 2W6       0.162800
     10 N10          4.1770     3.5530     0.0100 n3         1 2W6      -0.729600
     11 C11          3.5040     3.5230    -1.2960 c3         1 2W6       0.150600
     12 C12          4.0180     4.8640     0.6540 c3         1 2W6       0.150600
     13 N13          4.0680    -1.2900     0.7010 na         1 2W6       0.066400
     14 N14          5.2110    -1.9660     1.1470 nc         1 2W6      -0.508800
     15 C15          5.3210    -3.0800     0.4710 cd         1 2W6       0.340200
     16 C16          4.2490    -3.1550    -0.4330 cc         1 2W6      -0.162700
     17 C17          3.4880    -2.0430    -0.2680 cd         1 2W6      -0.156300
     18 N18          4.0050    -4.2020    -1.3420 ns         1 2W6      -0.435100
     19 C19          4.8460    -5.2530    -1.4020 c          1 2W6       0.614600
     20 O20          5.8160    -5.2970    -0.6710 o          1 2W6      -0.607100
     21 C21          4.5880    -6.3500    -2.3560 cd         1 2W6       0.266800
     22 C22          5.3640    -7.5090    -2.5320 cd         1 2W6      -0.203600
     23 C23          4.7480    -8.2250    -3.5040 cc         1 2W6      -0.146600
     24 N24          3.6630    -7.5310    -3.8820 na         1 2W6       0.048400
     25 N25          3.5790    -6.4370    -3.2060 nc         1 2W6      -0.526800
     26 C26          5.2500    -9.5510    -4.0170 c3         1 2W6       0.004900
     27 C27          6.7120    -9.7140    -3.5830 c3         1 2W6      -0.065000
     28 C28          6.8380    -9.4290    -2.0830 c3         1 2W6      -0.074400
     29 C29          6.6220    -7.9320    -1.8250 c3         1 2W6      -0.001100
     30 C30          7.1720   -11.1440    -3.8690 c3         1 2W6      -0.084600
     31 C31          7.5870    -8.7310    -4.3630 c3         1 2W6      -0.084600
     32 H1          -0.5410    -0.0000    -0.9380 ha         1 2W6       0.133000
     33 H2           1.9240    -0.0000    -0.9380 ha         1 2W6       0.136000
     34 H3           1.9220     0.0010     3.3330 ha         1 2W6       0.136000
     35 H4          -0.5440     0.0020     3.3320 ha         1 2W6       0.133000
     36 H5          -1.7750     0.0010     1.1960 ha         1 2W6       0.132000
     37 H6           3.9400     0.1570     2.2080 h1         1 2W6       0.087700
     38 H7           5.1700     1.0660     0.2230 hc         1 2W6       0.064700
     39 H8           3.6590     1.0130    -0.6950 hc         1 2W6       0.064700
     40 H9           2.6060     2.5310     0.9490 h1         1 2W6       0.038200
     41 H10          4.1170     2.5840     1.8680 h1         1 2W6       0.038200
     42 H12          3.9470     2.7520    -1.9130 h1         1 2W6       0.032367
     43 H13          2.4510     3.3120    -1.1540 h1         1 2W6       0.032367
     44 H14          3.6170     4.4850    -1.7820 h1         1 2W6       0.032367
     45 H15          2.9710     5.0330     0.8750 h1         1 2W6       0.032367
     46 H16          4.3770     5.6390    -0.0120 h1         1 2W6       0.032367
     47 H17          4.5900     4.8850     1.5750 h1         1 2W6       0.032367
     48 H18          6.1060    -3.8180     0.5870 h4         1 2W6       0.091100
     49 H19          2.5860    -1.7990    -0.8160 h4         1 2W6       0.173000
     50 H20          3.2070    -4.1640    -1.9450 hn         1 2W6       0.333500
     51 H21          3.0140    -7.8200    -4.5870 hn         1 2W6       0.331700
     52 H22          5.1870    -9.5700    -5.0980 hc         1 2W6       0.052700
     53 H23          4.6540   -10.3520    -3.5970 hc         1 2W6       0.052700
     54 H24          6.0570    -9.9760    -1.5690 hc         1 2W6       0.050700
     55 H25          7.8460    -9.6820    -1.7760 hc         1 2W6       0.050700
     56 H26          6.5180    -7.7570    -0.7610 hc         1 2W6       0.067200
     57 H27          7.4630    -7.3710    -2.2130 hc         1 2W6       0.067200
     58 H28          6.9940   -11.3780    -4.9120 hc         1 2W6       0.037867
     59 H29          6.6180   -11.8340    -3.2440 hc         1 2W6       0.037867
     60 H30          8.2300   -11.2330    -3.6540 hc         1 2W6       0.037867
     61 H31          7.7790    -9.1260    -5.3540 hc         1 2W6       0.037867
     62 H32          7.0760    -7.7800    -4.4470 hc         1 2W6       0.037867
     63 H33          8.5270    -8.5920    -3.8430 hc         1 2W6       0.037867
@<TRIPOS>BOND
     1    11    10 1   
     2    10    12 1   
     3    10     9 1   
     4     9     8 1   
     5    28    29 1   
     6    28    27 1   
     7    30    27 1   
     8    26    23 1   
     9    26    27 1   
    10    29    22 1   
    11    23    22 2   
    12    23    24 1   
    13    22    21 1   
    14    27    31 1   
    15    24    25 1   
    16    21    25 2   
    17    21    19 1   
    18    18    19 1   
    19    18    16 1   
    20    19    20 2   
    21    16    17 2   
    22    16    15 1   
    23    17    13 1   
    24     8     7 1   
    25    15    14 2   
    26    13    14 1   
    27    13     7 1   
    28     7     3 1   
    29     3     4 ar  
    30     3     2 ar  
    31     4     5 ar  
    32     2     1 ar  
    33     5     6 ar  
    34     1     6 ar  
    35     1    32 1   
    36     2    33 1   
    37     4    34 1   
    38     5    35 1   
    39     6    36 1   
    40     7    37 1   
    41     8    38 1   
    42     8    39 1   
    43     9    40 1   
    44     9    41 1   
    45    11    42 1   
    46    11    43 1   
    47    11    44 1   
    48    12    45 1   
    49    12    46 1   
    50    12    47 1   
    51    15    48 1   
    52    17    49 1   
    53    18    50 1   
    54    24    51 1   
    55    26    52 1   
    56    26    53 1   
    57    28    54 1   
    58    28    55 1   
    59    29    56 1   
    60    29    57 1   
    61    30    58 1   
    62    30    59 1   
    63    30    60 1   
    64    31    61 1   
    65    31    62 1   
    66    31    63 1   
@<TRIPOS>SUBSTRUCTURE
     1 2W6         1 TEMP              0 ****  ****    0 ROOT
