@<TRIPOS>MOLECULE
2W6
   63    66     1     0     0
SMALL
bcc


@<TRIPOS>ATOM
      1 C1           0.0000     0.0000     0.0000 ca         1 2W6      -0.098000
      2 C2           1.3820     0.0000     0.0000 ca         1 2W6      -0.091000
      3 C3           2.0730     0.0000     1.1980 ca         1 2W6      -0.118300
      4 C4           1.3810     0.0000     2.3950 ca         1 2W6      -0.091000
      5 C5          -0.0020     0.0010     2.3940 ca         1 2W6      -0.098000
      6 C6          -0.6920     0.0000     1.1970 ca         1 2W6      -0.091000
      7 C7           3.5790    -0.0010     1.1980 c3         1 2W6       0.030300
      8 C8           4.0900     1.1220     0.2930 c3         1 2W6      -0.056400
      9 C9           3.6860     2.4750     0.8800 c3         1 2W6       0.150800
     10 N10          4.1770     3.5530     0.0100 n3         1 2W6      -0.543600
     11 C11          3.5040     3.5230    -1.2960 c3         1 2W6       0.181600
     12 C12          4.0180     4.8640     0.6540 c3         1 2W6       0.181600
     13 N13          4.0680    -1.2900     0.7010 na         1 2W6       0.494400
     14 N14          5.2110    -1.9660     1.1470 nc         1 2W6      -0.645800
     15 C15          5.3210    -3.0800     0.4710 cd         1 2W6       0.393200
     16 C16          4.2490    -3.1550    -0.4330 cd         1 2W6      -0.317700
     17 C17          3.4880    -2.0430    -0.2680 cc         1 2W6      -0.300300
     18 N18          4.0050    -4.2020    -1.3420 ns         1 2W6       0.034900
     19 C19          4.8460    -5.2530    -1.4020 c          1 2W6       0.511600
     20 O20          5.8160    -5.2970    -0.6710 o          1 2W6      -0.657100
     21 C21          4.5880    -6.3500    -2.3560 cc         1 2W6       0.257800
     22 C22          5.3640    -7.5090    -2.5320 cc         1 2W6      -0.188600
     23 C23          4.7480    -8.2250    -3.5040 cd         1 2W6      -0.361600
     24 N24          3.6630    -7.5310    -3.8820 na         1 2W6       0.598400
     25 N25          3.5790    -6.4370    -3.2060 nd         1 2W6      -0.678800
     26 C26          5.2500    -9.5510    -4.0170 c3         1 2W6       0.092900
     27 C27          6.7120    -9.7140    -3.5830 c3         1 2W6      -0.069000
     28 C28          6.8380    -9.4290    -2.0830 c3         1 2W6      -0.024400
     29 C29          6.6220    -7.9320    -1.8250 c3         1 2W6       0.062900
     30 C30          7.1720   -11.1440    -3.8690 c3         1 2W6       0.001900
     31 C31          7.5870    -8.7310    -4.3630 c3         1 2W6       0.001900
     32 H1          -0.5410    -0.0000    -0.9380 ha         1 2W6       0.105500
     33 H2           1.9240    -0.0000    -0.9380 ha         1 2W6       0.113500
     34 H3           1.9220     0.0010     3.3330 ha         1 2W6       0.113500
     35 H4          -0.5440     0.0020     3.3320 ha         1 2W6       0.105500
     36 H5          -1.7750     0.0010     1.1960 ha         1 2W6       0.104000
     37 H6           3.9400     0.1570     2.2080 h1         1 2W6       0.059700
     38 H7           5.1700     1.0660     0.2230 hc         1 2W6       0.038200
     39 H8           3.6590     1.0130    -0.6950 hc         1 2W6       0.038200
     40 H9           2.6060     2.5310     0.9490 h1         1 2W6       0.014700
     41 H10          4.1170     2.5840     1.8680 h1         1 2W6       0.014700
     42 H12          3.9470     2.7520    -1.9130 h1         1 2W6       0.001533
     43 H13          2.4510     3.3120    -1.1540 h1         1 2W6       0.001533
     44 H14          3.6170     4.4850    -1.7820 h1         1 2W6       0.001533
     45 H15          2.9710     5.0330     0.8750 h1         1 2W6       0.001533
     46 H16          4.3770     5.6390    -0.0120 h1         1 2W6       0.001533
     47 H17          4.5900     4.8850     1.5750 h1         1 2W6       0.001533
     48 H18          6.1060    -3.8180     0.5870 h4         1 2W6       0.056100
     49 H19          2.5860    -1.7990    -0.8160 h4         1 2W6       0.158000
     50 H20          3.2070    -4.1640    -1.9450 hn         1 2W6       0.170500
     51 H21          3.0140    -7.8200    -4.5870 hn         1 2W6       0.130700
     52 H22          5.1870    -9.5700    -5.0980 hc         1 2W6       0.017700
     53 H23          4.6540   -10.3520    -3.5970 hc         1 2W6       0.017700
     54 H24          6.0570    -9.9760    -1.5690 hc         1 2W6       0.023200
     55 H25          7.8460    -9.6820    -1.7760 hc         1 2W6       0.023200
     56 H26          6.5180    -7.7570    -0.7610 hc         1 2W6       0.038200
     57 H27          7.4630    -7.3710    -2.2130 hc         1 2W6       0.038200
     58 H28          6.9940   -11.3780    -4.9120 hc         1 2W6       0.007867
     59 H29          6.6180   -11.8340    -3.2440 hc         1 2W6       0.007867
     60 H30          8.2300   -11.2330    -3.6540 hc         1 2W6       0.007867
     61 H31          7.7790    -9.1260    -5.3540 hc         1 2W6       0.007867
     62 H32          7.0760    -7.7800    -4.4470 hc         1 2W6       0.007867
     63 H33          8.5270    -8.5920    -3.8430 hc         1 2W6       0.007867
@<TRIPOS>BOND
     1     1     2 ar  
     2     1     6 ar  
     3     1    32 1   
     4     2     3 ar  
     5     2    33 1   
     6     3     4 ar  
     7     3     7 1   
     8     4     5 ar  
     9     4    34 1   
    10     5     6 ar  
    11     5    35 1   
    12     6    36 1   
    13     7     8 1   
    14     7    13 1   
    15     7    37 1   
    16     8     9 1   
    17     8    38 1   
    18     8    39 1   
    19     9    10 1   
    20     9    40 1   
    21     9    41 1   
    22    10    11 1   
    23    10    12 1   
    24    11    42 1   
    25    11    43 1   
    26    11    44 1   
    27    12    45 1   
    28    12    46 1   
    29    12    47 1   
    30    13    14 1   
    31    13    17 1   
    32    14    15 2   
    33    15    16 1   
    34    15    48 1   
    35    16    17 2   
    36    16    18 1   
    37    17    49 1   
    38    18    19 1   
    39    18    50 1   
    40    19    20 2   
    41    19    21 1   
    42    21    22 1   
    43    21    25 2   
    44    22    23 2   
    45    22    29 1   
    46    23    24 1   
    47    23    26 1   
    48    24    25 1   
    49    24    51 1   
    50    26    27 1   
    51    26    52 1   
    52    26    53 1   
    53    27    28 1   
    54    27    30 1   
    55    27    31 1   
    56    28    29 1   
    57    28    54 1   
    58    28    55 1   
    59    29    56 1   
    60    29    57 1   
    61    30    58 1   
    62    30    59 1   
    63    30    60 1   
    64    31    61 1   
    65    31    62 1   
    66    31    63 1   
@<TRIPOS>SUBSTRUCTURE
     1 2W6         1 TEMP              0 ****  ****    0 ROOT
