@<TRIPOS>MOLECULE
molecule
   48    51     1     0     0
SMALL
bcc


@<TRIPOS>ATOM
      1 S2           0.0000     0.0000     0.0000 sh         1 2W7      -0.264700
      2 C5           1.7620     0.0000     0.0000 ca         1 2W7       0.084900
      3 C6           2.4620     0.0000     1.2020 ca         1 2W7      -0.129000
      4 C10          2.4670    -0.0060    -1.2140 ca         1 2W7      -0.114600
      5 C7           3.8400     0.0000     1.1980 ca         1 2W7      -0.106000
      6 C8           4.5400    -0.0000     0.0010 ca         1 2W7      -0.130000
      7 C9           3.8650    -0.0110    -1.2000 ca         1 2W7      -0.102000
      8 C11          1.7400    -0.0060    -2.4960 c          1 2W7       0.663700
      9 O2           0.5230    -0.0020    -2.5040 o          1 2W7      -0.578100
     10 N3           2.4210    -0.0120    -3.6580 ns         1 2W7      -0.577900
     11 C12          1.6960    -0.0130    -4.9320 c3         1 2W7       0.040000
     12 C13          2.6830    -0.0200    -6.0710 c          1 2W7       0.652100
     13 O3           3.8740    -0.0240    -5.8410 o          1 2W7      -0.624100
     14 N4           2.2430    -0.0220    -7.3450 ns         1 2W7      -0.572900
     15 C14          3.2020    -0.0290    -8.4510 c3         1 2W7       0.135400
     16 C18          4.0860     1.2180    -8.3680 c3         1 2W7      -0.082400
     17 C17          5.0880     1.2100    -9.5240 c3         1 2W7      -0.061700
     18 C19          5.9620    -0.0420    -9.4340 c3         1 2W7      -0.071400
     19 C23          5.0780    -1.2880    -9.5170 c3         1 2W7      -0.061700
     20 C24          4.0770    -1.2810    -8.3610 c3         1 2W7      -0.082400
     21 C25          4.3220    -1.2890   -10.8480 c3         1 2W7      -0.071400
     22 C20          3.4480    -0.0370   -10.9380 c3         1 2W7      -0.061700
     23 C26          2.4460    -0.0290    -9.7820 c3         1 2W7      -0.082400
     24 C16          4.3310     1.2090   -10.8550 c3         1 2W7      -0.071400
     25 H1          -0.4430     1.0090     0.7410 hs         1 2W7       0.178800
     26 H6           1.9230     0.0000     2.1420 ha         1 2W7       0.141000
     27 H7           4.3800     0.0040     2.1370 ha         1 2W7       0.134000
     28 H8           5.6230    -0.0020     0.0100 ha         1 2W7       0.136000
     29 H9           4.4170    -0.0140    -2.1320 ha         1 2W7       0.138000
     30 H3           3.4220    -0.0200    -3.6510 hn         1 2W7       0.337500
     31 H122         1.0710    -0.8950    -4.9910 h1         1 2W7       0.071700
     32 H121         1.0770     0.8740    -4.9960 h1         1 2W7       0.071700
     33 H4           1.2610    -0.0180    -7.5350 hn         1 2W7       0.316500
     34 HZ12         4.6220     1.2180    -7.4260 hc         1 2W7       0.054700
     35 HZ11         3.4680     2.1050    -8.4320 hc         1 2W7       0.054700
     36 HY1          5.7140     2.0930    -9.4650 hc         1 2W7       0.051367
     37 HX22         6.6710    -0.0470   -10.2530 hc         1 2W7       0.043033
     38 HX21         6.4980    -0.0420    -8.4930 hc         1 2W7       0.043033
     39 HY3          5.6970    -2.1740    -9.4540 hc         1 2W7       0.051367
     40 HZ21         3.4510    -2.1640    -8.4210 hc         1 2W7       0.054700
     41 HZ22         4.6130    -1.2810    -7.4200 hc         1 2W7       0.054700
     42 HX31         3.6960    -2.1710   -10.9070 hc         1 2W7       0.043033
     43 HX32         5.0310    -1.2930   -11.6670 hc         1 2W7       0.043033
     44 HY2          2.9130    -0.0370   -11.8790 hc         1 2W7       0.051367
     45 HZ32         1.8200    -0.9120    -9.8410 hc         1 2W7       0.054700
     46 HZ31         1.8270     0.8570    -9.8460 hc         1 2W7       0.054700
     47 HX12         3.7120     2.0960   -10.9190 hc         1 2W7       0.043033
     48 HX11         5.0410     1.2040   -11.6730 hc         1 2W7       0.043033
@<TRIPOS>BOND
     1    18    19 1   
     2    18    17 1   
     3    19    21 1   
     4    19    20 1   
     5    21    22 1   
     6    20    15 1   
     7    17    24 1   
     8    17    16 1   
     9    24    22 1   
    10    22    23 1   
    11    13    12 2   
    12    16    15 1   
    13    15    23 1   
    14    15    14 1   
    15    12    14 1   
    16    12    11 1   
    17    11    10 1   
    18    10     8 1   
    19     7     6 ar  
    20     7     4 ar  
    21     6     5 ar  
    22     8     4 1   
    23     8     9 2   
    24     4     2 ar  
    25     5     3 ar  
    26     2     3 ar  
    27     2     1 1   
    28     1    25 1   
    29     3    26 1   
    30     5    27 1   
    31     6    28 1   
    32     7    29 1   
    33    10    30 1   
    34    11    31 1   
    35    11    32 1   
    36    14    33 1   
    37    16    34 1   
    38    16    35 1   
    39    17    36 1   
    40    18    37 1   
    41    18    38 1   
    42    19    39 1   
    43    20    40 1   
    44    20    41 1   
    45    21    42 1   
    46    21    43 1   
    47    22    44 1   
    48    23    45 1   
    49    23    46 1   
    50    24    47 1   
    51    24    48 1   
@<TRIPOS>SUBSTRUCTURE
     1 2W7         1 TEMP              0 ****  ****    0 ROOT
