@<TRIPOS>MOLECULE
2W8
   32    33     1     0     0
SMALL
bcc


@<TRIPOS>ATOM
      1 C1           0.0000     0.0000     0.0000 cp         1 2W8      -0.067000
      2 C2           1.3940     0.0000     0.0000 ca         1 2W8      -0.118000
      3 C3           2.0810     0.0000     1.1980 ca         1 2W8      -0.106000
      4 C5           1.3900     0.0000     2.3960 ca         1 2W8      -0.088000
      5 C6           0.0070     0.0010     2.4010 ca         1 2W8      -0.052300
      6 C7          -0.6910     0.0010     1.2100 ca         1 2W8      -0.091000
      7 C9          -0.7410     0.0010     3.7100 c3         1 2W8       0.029900
      8 C10         -0.9930     1.4450     4.1520 c3         1 2W8      -0.129400
      9 C11         -1.7390     1.4450     5.4610 c          1 2W8       0.978600
     10 O12         -2.0720     2.6080     6.0430 o          1 2W8      -0.900300
     11 O14         -2.0390     0.4000     5.9870 o          1 2W8      -0.900300
     12 C19         -0.7440     0.0060    -1.2830 cp         1 2W8      -0.014000
     13 C20         -2.1380     0.0060    -1.2830 ca         1 2W8      -0.045000
     14 C22         -2.8250     0.0120    -2.4790 ca         1 2W8      -0.116000
     15 C24         -2.1330     0.0180    -3.6780 ca         1 2W8      -0.033000
     16 C26         -0.7500     0.0180    -3.6840 ca         1 2W8      -0.452200
     17 N27         -0.0170     0.0240    -4.9690 no         1 2W8       1.053200
     18 O28         -0.6320     0.0300    -6.0210 o          1 2W8      -0.461500
     19 O29          1.2010     0.0240    -4.9760 o          1 2W8      -0.461500
     20 C30         -0.0520     0.0160    -2.4920 ca         1 2W8      -0.027000
     21 H1           1.9360    -0.0770    -0.9350 ha         1 2W8       0.103000
     22 H2           3.1640    -0.0000     1.1990 ha         1 2W8       0.096000
     23 H3           1.9330    -0.0070     3.3330 ha         1 2W8       0.112000
     24 H4          -1.7720    -0.0650     1.2160 ha         1 2W8       0.115000
     25 H5          -1.6880    -0.5090     3.5850 hc         1 2W8       0.028200
     26 H6          -0.1510    -0.5090     4.4620 hc         1 2W8       0.028200
     27 H7          -1.5830     1.9550     3.4010 hc         1 2W8       0.007700
     28 H8          -0.0460     1.9560     4.2770 hc         1 2W8       0.007700
     29 H10         -2.6810     0.0010    -0.3460 ha         1 2W8       0.128000
     30 H11         -3.9080     0.0120    -2.4810 ha         1 2W8       0.111000
     31 H12         -2.6770     0.0230    -4.6150 ha         1 2W8       0.125000
     32 H13          1.0310     0.0160    -2.4980 ha         1 2W8       0.141000
@<TRIPOS>BOND
     1     1     2 ar  
     2     1     6 ar  
     3     1    12 1   
     4     2     3 ar  
     5     2    21 1   
     6     3     4 ar  
     7     3    22 1   
     8     4     5 ar  
     9     4    23 1   
    10     5     6 ar  
    11     5     7 1   
    12     6    24 1   
    13     7     8 1   
    14     7    25 1   
    15     7    26 1   
    16     8     9 1   
    17     8    27 1   
    18     8    28 1   
    19     9    10 1   
    20     9    11 1   
    21    12    13 ar  
    22    12    20 ar  
    23    13    14 ar  
    24    13    29 1   
    25    14    15 ar  
    26    14    30 1   
    27    15    16 ar  
    28    15    31 1   
    29    16    17 1   
    30    16    20 ar  
    31    17    18 1   
    32    17    19 1   
    33    20    32 1   
@<TRIPOS>SUBSTRUCTURE
     1 2W8         1 TEMP              0 ****  ****    0 ROOT
