@<TRIPOS>MOLECULE
molecule
   32    33     1     0     0
SMALL
bcc


@<TRIPOS>ATOM
      1 C1           0.0000     0.0000     0.0000 cp         1 2W8      -0.065000
      2 C2           1.3940     0.0000     0.0000 ca         1 2W8      -0.136000
      3 C3           2.0810     0.0000     1.1980 ca         1 2W8      -0.132000
      4 C5           1.3900     0.0000     2.3960 ca         1 2W8      -0.116000
      5 C6           0.0070     0.0010     2.4010 ca         1 2W8      -0.051300
      6 C7          -0.6910     0.0010     1.2100 ca         1 2W8      -0.113000
      7 C9          -0.7410     0.0010     3.7100 c3         1 2W8      -0.030100
      8 C10         -0.9930     1.4450     4.1520 c3         1 2W8      -0.178400
      9 C11         -1.7390     1.4450     5.4610 c          1 2W8       0.889600
     10 O12         -2.0720     2.6080     6.0430 o          1 2W8      -0.850800
     11 O14         -2.0390     0.4000     5.9870 o          1 2W8      -0.850800
     12 C19         -0.7440     0.0060    -1.2830 cp         1 2W8      -0.011000
     13 C20         -2.1380     0.0060    -1.2830 ca         1 2W8      -0.083000
     14 C22         -2.8250     0.0120    -2.4790 ca         1 2W8      -0.134000
     15 C24         -2.1330     0.0180    -3.6780 ca         1 2W8      -0.089000
     16 C26         -0.7500     0.0180    -3.6840 ca         1 2W8      -0.156200
     17 N27         -0.0170     0.0240    -4.9690 no         1 2W8       0.296200
     18 O28         -0.6320     0.0300    -6.0210 o          1 2W8      -0.218000
     19 O29          1.2010     0.0240    -4.9760 o          1 2W8      -0.218000
     20 C30         -0.0520     0.0160    -2.4920 ca         1 2W8      -0.077000
     21 H1           1.9360    -0.0770    -0.9350 ha         1 2W8       0.121000
     22 H2           3.1640    -0.0000     1.1990 ha         1 2W8       0.122000
     23 H3           1.9330    -0.0070     3.3330 ha         1 2W8       0.139000
     24 H4          -1.7720    -0.0650     1.2160 ha         1 2W8       0.134000
     25 H5          -1.6880    -0.5090     3.5850 hc         1 2W8       0.058200
     26 H6          -0.1510    -0.5090     4.4620 hc         1 2W8       0.058200
     27 H7          -1.5830     1.9550     3.4010 hc         1 2W8       0.032700
     28 H8          -0.0460     1.9560     4.2770 hc         1 2W8       0.032700
     29 H10         -2.6810     0.0010    -0.3460 ha         1 2W8       0.157000
     30 H11         -3.9080     0.0120    -2.4810 ha         1 2W8       0.144000
     31 H12         -2.6770     0.0230    -4.6150 ha         1 2W8       0.156000
     32 H13          1.0310     0.0160    -2.4980 ha         1 2W8       0.167000
@<TRIPOS>BOND
     1    19    17 1
     2    17    18 1
     3    17    16 1
     4    15    16 ar
     5    15    14 ar
     6    16    20 ar
     7    14    13 ar
     8    20    12 ar
     9    13    12 ar
    10    12     1 1
    11     1     2 ar
    12     1     6 ar
    13     2     3 ar
    14     6     5 ar
    15     3     4 ar
    16     5     4 ar
    17     5     7 1
    18    11     9 1
    19     7     8 1
    20     9     8 1
    21     9    10 1
    22     2    21 1
    23     3    22 1
    24     4    23 1
    25     6    24 1
    26     7    25 1
    27     7    26 1
    28     8    27 1
    29     8    28 1
    30    13    29 1
    31    14    30 1
    32    15    31 1
    33    20    32 1
@<TRIPOS>SUBSTRUCTURE
     1 2W8         1 TEMP              0 ****  ****    0 ROOT
