@<TRIPOS>MOLECULE
2W9
   29    30     1     0     0
SMALL
bcc


@<TRIPOS>ATOM
      1 C1         -0.0480    0.0210   -0.0990 ca        1 2W9     -0.186500
      2 C2          1.3460    0.1130   -0.2420 ca        1 2W9     -0.095000
      3 C3          2.1740    0.1450    0.8840 ca        1 2W9     -0.040300
      4 C4          3.6530    0.2340    0.7530 c3        1 2W9     -0.049100
      5 C7          4.2170    1.5160    1.3280 c3        1 2W9     -0.196400
      6 C8          5.6370    1.3070    1.8940 c         1 2W9      0.908600
      7 O9          6.4490    2.2690    1.7950 o         1 2W9     -0.844300
      8 O11         5.9060    0.2020    2.4500 o         1 2W9     -0.844300
      9 C14         1.5930    0.0800    2.1600 ca        1 2W9     -0.095000
     10 C15         0.2100   -0.0110    2.3050 ca        1 2W9     -0.145000
     11 C16        -0.6150   -0.0400    1.1850 ca        1 2W9     -0.118000
     12 C21        -0.9170   -0.0070   -1.2470 cc        1 2W9      0.418200
     13 O22        -0.3200   -0.0840   -2.5070 os        1 2W9     -0.308800
     14 C23        -1.3850   -0.0980   -3.4290 cc        1 2W9      0.093200
     15 N24        -1.0580   -0.1760   -4.8410 no        1 2W9      0.249500
     16 O25        -1.9750   -0.1850   -5.6260 o         1 2W9     -0.204500
     17 O26         0.0870   -0.2310   -5.1930 o         1 2W9     -0.204500
     18 C27        -2.6100   -0.0310   -2.7710 cd        1 2W9     -0.121300
     19 C29        -2.3080    0.0270   -1.3740 cd        1 2W9     -0.313300
     20 H1          1.7870    0.1630   -1.2500 ha        1 2W9      0.151000
     21 H2          4.1210   -0.6310    1.3100 hc        1 2W9      0.067700
     22 H3          3.9530    0.1390   -0.3230 hc        1 2W9      0.067700
     23 H4          3.5790    1.8810    2.1730 hc        1 2W9      0.027200
     24 H5          4.2450    2.3160    0.5490 hc        1 2W9      0.027200
     25 H7          2.2500    0.1040    3.0460 ha        1 2W9      0.161000
     26 H8         -0.2330   -0.0600    3.3100 ha        1 2W9      0.127000
     27 H9         -1.7050   -0.1130    1.3020 ha        1 2W9      0.121000
     28 H10        -3.5950   -0.0230   -3.2350 ha        1 2W9      0.178000
     29 H11        -3.0330    0.0900   -0.5670 ha        1 2W9      0.171000
@<TRIPOS>BOND
     1    1    2 ar  
     2    1   11 ar  
     3    1   12 1   
     4    2    3 ar  
     5    2   20 1   
     6    3    4 1   
     7    3    9 ar  
     8    4    5 1   
     9    4   21 1   
    10    4   22 1   
    11    5    6 1   
    12    5   23 1   
    13    5   24 1   
    14    6    7 1   
    15    6    8 1   
    16    9   10 ar  
    17    9   25 1   
    18   10   11 ar  
    19   10   26 1   
    20   11   27 1   
    21   12   13 1   
    22   12   19 2   
    23   13   14 1   
    24   14   15 1   
    25   14   18 2   
    26   15   16 1   
    27   15   17 1   
    28   18   19 1   
    29   18   28 1   
    30   19   29 1   
@<TRIPOS>SUBSTRUCTURE
     1 2W9         1 TEMP              0 ****  ****    0 ROOT
