@<TRIPOS>MOLECULE
2WA
  110   109     1     0     0
SMALL
bcc


@<TRIPOS>ATOM
      1 CBE         2.1180    3.9550   -0.4910 c3        1 2WA     -0.092100
      2 CBD         2.5880    2.6750    0.1490 c3        1 2WA     -0.080400
      3 CBC         3.7800    2.9110    1.0530 c3        1 2WA     -0.079400
      4 CBB         4.2480    1.6220    1.6940 c3        1 2WA     -0.079400
      5 CBA         5.4390    1.8590    2.5990 c3        1 2WA     -0.079400
      6 CAZ         5.9050    0.5710    3.2410 c3        1 2WA     -0.080400
      7 CAY         7.0990    0.8060    4.1410 c3        1 2WA     -0.075400
      8 CAX         7.5630   -0.4690    4.8160 c3        1 2WA     -0.048200
      9 CAW         6.6220   -0.9570    5.8520 c2        1 2WA     -0.174200
     10 CAV         6.7490   -2.1320    6.4780 c2        1 2WA     -0.175200
     11 CAU         7.8380   -3.0990    6.2020 c3        1 2WA     -0.048200
     12 CAT         7.8360   -4.2840    7.1440 c3        1 2WA     -0.075400
     13 CAS         8.2590   -3.8980    8.5460 c3        1 2WA     -0.080400
     14 CAR         8.2240   -5.0900    9.4780 c3        1 2WA     -0.078400
     15 CAQ         8.6480   -4.7020   10.8780 c3        1 2WA     -0.078400
     16 CAP         8.6230   -5.8970   11.8050 c3        1 2WA     -0.102400
     17 CAO         8.9640   -5.4680   13.2320 c3        1 2WA      0.335900
     18 OAD         7.9620   -4.6990   13.8430 oh        1 2WA     -0.632800
     19 OAN         9.0750   -6.6660   13.9910 os        1 2WA     -0.453600
     20 CAM         9.4930   -6.4860   15.3440 c3        1 2WA      0.108100
     21 CAL         8.2780   -6.1750   16.2270 c3        1 2WA      0.119400
     22 OAK         7.0850   -6.6950   15.6760 oh        1 2WA     -0.606800
     23 CBI        10.1810   -7.7920   15.7520 c3        1 2WA      0.128400
     24 OBJ         9.1660   -8.7760   15.9400 os        1 2WA     -0.467600
     25 CBK         9.6650  -10.1060   16.0050 c3        1 2WA      0.332900
     26 OCC        10.1360  -10.3980   14.7140 oh        1 2WA     -0.621800
     27 CBL         8.5010  -10.9890   16.4530 c3        1 2WA     -0.104400
     28 CBM         8.9670  -12.4140   16.6480 c3        1 2WA     -0.079400
     29 CBN         7.8090  -13.3220   16.9990 c3        1 2WA     -0.078400
     30 CBO         8.2750  -14.7480   17.2060 c3        1 2WA     -0.079400
     31 CBP         7.1170  -15.6590   17.5500 c3        1 2WA     -0.079400
     32 CBQ         7.5820  -17.0850   17.7550 c3        1 2WA     -0.079400
     33 CBR         6.4230  -17.9970   18.0970 c3        1 2WA     -0.079400
     34 CBS         6.8880  -19.4230   18.2990 c3        1 2WA     -0.079400
     35 CBT         5.7290  -20.3360   18.6390 c3        1 2WA     -0.079400
     36 CBU         6.1940  -21.7620   18.8400 c3        1 2WA     -0.079400
     37 CBV         5.0350  -22.6760   19.1780 c3        1 2WA     -0.079400
     38 CBW         5.5000  -24.1020   19.3780 c3        1 2WA     -0.079400
     39 CBX         4.3410  -25.0170   19.7150 c3        1 2WA     -0.080400
     40 CBY         4.7990  -26.4380   19.9150 c3        1 2WA     -0.092100
     41 H1          1.8140    4.6970    0.2870 hc        1 2WA      0.032700
     42 H2          2.9300    4.4100   -1.1080 hc        1 2WA      0.032700
     43 H3          1.2400    3.7590   -1.1530 hc        1 2WA      0.032700
     44 H4          1.7520    2.2210    0.7440 hc        1 2WA      0.038700
     45 H5          2.8650    1.9350   -0.6480 hc        1 2WA      0.038700
     46 H6          3.5040    3.6500    1.8510 hc        1 2WA      0.039200
     47 H7          4.6180    3.3630    0.4600 hc        1 2WA      0.039200
     48 H8          4.5240    0.8830    0.8960 hc        1 2WA      0.039700
     49 H9          3.4100    1.1700    2.2870 hc        1 2WA      0.039700
     50 H10         5.1640    2.6000    3.3950 hc        1 2WA      0.038700
     51 H11         6.2780    2.3090    2.0050 hc        1 2WA      0.038700
     52 H12         6.1750   -0.1710    2.4440 hc        1 2WA      0.041700
     53 H13         5.0680    0.1220    3.8390 hc        1 2WA      0.041700
     54 H14         7.9450    1.2240    3.5330 hc        1 2WA      0.040200
     55 H15         6.8390    1.5720    4.9190 hc        1 2WA      0.040200
     56 H16         8.5650   -0.2840    5.2960 hc        1 2WA      0.046700
     57 H17         7.7180   -1.2690    4.0410 hc        1 2WA      0.046700
     58 H18         5.7850   -0.2830    6.0980 ha        1 2WA      0.123000
     59 H19         6.0180   -2.4350    7.2450 ha        1 2WA      0.123000
     60 H20         7.7320   -3.4730    5.1450 hc        1 2WA      0.046700
     61 H21         8.8300   -2.5730    6.2610 hc        1 2WA      0.046700
     62 H22         6.8130   -4.7420    7.1730 hc        1 2WA      0.040200
     63 H23         8.5390   -5.0650    6.7480 hc        1 2WA      0.040200
     64 H24         9.2960   -3.4700    8.5210 hc        1 2WA      0.042700
     65 H25         7.5790   -3.0940    8.9340 hc        1 2WA      0.042700
     66 H26         8.9020   -5.8940    9.0880 hc        1 2WA      0.039700
     67 H27         7.1860   -5.5170    9.5040 hc        1 2WA      0.039700
     68 H28         9.6810   -4.2660   10.8510 hc        1 2WA      0.048200
     69 H29         7.9630   -3.9090   11.2800 hc        1 2WA      0.048200
     70 H30         9.3640   -6.6690   11.4740 hc        1 2WA      0.058200
     71 H31         7.6090   -6.3740   11.7970 hc        1 2WA      0.058200
     72 H32         9.9010   -4.8460   13.2800 h2        1 2WA      0.067700
     73 H33         7.1840   -5.2630   13.9730 ho        1 2WA      0.435000
     74 H34        10.2420   -5.6510   15.4160 h1        1 2WA      0.054700
     75 H35         8.1050   -5.0660   16.2820 h1        1 2WA      0.053700
     76 H36         8.4400   -6.5960   17.2540 h1        1 2WA      0.053700
     77 H37         7.2650   -7.6100   15.4220 ho        1 2WA      0.421000
     78 H38        10.7240   -7.6440   16.7230 h1        1 2WA      0.049700
     79 H39        10.8950   -8.1230   14.9530 h1        1 2WA      0.049700
     80 H40        10.5590  -10.1930   16.6820 h2        1 2WA      0.074700
     81 H41         9.4060  -10.2720   14.0940 ho        1 2WA      0.418000
     82 H42         8.0850  -10.5760   17.4070 hc        1 2WA      0.059700
     83 H43         7.6890  -10.9470   15.6820 hc        1 2WA      0.059700
     84 H44         9.7370  -12.4510   17.4640 hc        1 2WA      0.048200
     85 H45         9.4640  -12.7730   15.7070 hc        1 2WA      0.048200
     86 H46         7.3080  -12.9510   17.9320 hc        1 2WA      0.041200
     87 H47         7.0440  -13.2920   16.1790 hc        1 2WA      0.041200
     88 H48         8.7810  -15.1170   16.2750 hc        1 2WA      0.040700
     89 H49         9.0360  -14.7790   18.0300 hc        1 2WA      0.040700
     90 H50         6.6120  -15.2910   18.4820 hc        1 2WA      0.039700
     91 H51         6.3550  -15.6270   16.7270 hc        1 2WA      0.039700
     92 H52         8.0880  -17.4530   16.8240 hc        1 2WA      0.039700
     93 H53         8.3420  -17.1180   18.5800 hc        1 2WA      0.039700
     94 H54         5.9180  -17.6300   19.0290 hc        1 2WA      0.039700
     95 H55         5.6620  -17.9630   17.2730 hc        1 2WA      0.039700
     96 H56         7.6480  -19.4580   19.1240 hc        1 2WA      0.039700
     97 H57         7.3950  -19.7900   17.3680 hc        1 2WA      0.039700
     98 H58         4.9690  -20.3010   17.8150 hc        1 2WA      0.039700
     99 H59         5.2230  -19.9700   19.5710 hc        1 2WA      0.039700
    100 H60         6.7010  -22.1280   17.9080 hc        1 2WA      0.039700
    101 H61         6.9540  -21.7980   19.6650 hc        1 2WA      0.039700
    102 H62         4.2760  -22.6400   18.3530 hc        1 2WA      0.039700
    103 H63         4.5280  -22.3110   20.1090 hc        1 2WA      0.039700
    104 H64         6.0070  -24.4670   18.4470 hc        1 2WA      0.039700
    105 H65         6.2580  -24.1380   20.2040 hc        1 2WA      0.039700
    106 H66         3.8330  -24.6490   20.6460 hc        1 2WA      0.038700
    107 H67         3.5830  -24.9780   18.8890 hc        1 2WA      0.038700
    108 H68         5.2850  -26.8300   18.9900 hc        1 2WA      0.032700
    109 H69         5.5370  -26.5010   20.7510 hc        1 2WA      0.032700
    110 H70         3.9300  -27.0950   20.1620 hc        1 2WA      0.032700
@<TRIPOS>BOND
     1    1    2 1   
     2    1   41 1   
     3    1   42 1   
     4    1   43 1   
     5    2    3 1   
     6    2   44 1   
     7    2   45 1   
     8    3    4 1   
     9    3   46 1   
    10    3   47 1   
    11    4    5 1   
    12    4   48 1   
    13    4   49 1   
    14    5    6 1   
    15    5   50 1   
    16    5   51 1   
    17    6    7 1   
    18    6   52 1   
    19    6   53 1   
    20    7    8 1   
    21    7   54 1   
    22    7   55 1   
    23    8    9 1   
    24    8   56 1   
    25    8   57 1   
    26    9   10 2   
    27    9   58 1   
    28   10   11 1   
    29   10   59 1   
    30   11   12 1   
    31   11   60 1   
    32   11   61 1   
    33   12   13 1   
    34   12   62 1   
    35   12   63 1   
    36   13   14 1   
    37   13   64 1   
    38   13   65 1   
    39   14   15 1   
    40   14   66 1   
    41   14   67 1   
    42   15   16 1   
    43   15   68 1   
    44   15   69 1   
    45   16   17 1   
    46   16   70 1   
    47   16   71 1   
    48   17   18 1   
    49   17   19 1   
    50   17   72 1   
    51   18   73 1   
    52   19   20 1   
    53   20   21 1   
    54   20   23 1   
    55   20   74 1   
    56   21   22 1   
    57   21   75 1   
    58   21   76 1   
    59   22   77 1   
    60   23   24 1   
    61   23   78 1   
    62   23   79 1   
    63   24   25 1   
    64   25   26 1   
    65   25   27 1   
    66   25   80 1   
    67   26   81 1   
    68   27   28 1   
    69   27   82 1   
    70   27   83 1   
    71   28   29 1   
    72   28   84 1   
    73   28   85 1   
    74   29   30 1   
    75   29   86 1   
    76   29   87 1   
    77   30   31 1   
    78   30   88 1   
    79   30   89 1   
    80   31   32 1   
    81   31   90 1   
    82   31   91 1   
    83   32   33 1   
    84   32   92 1   
    85   32   93 1   
    86   33   34 1   
    87   33   94 1   
    88   33   95 1   
    89   34   35 1   
    90   34   96 1   
    91   34   97 1   
    92   35   36 1   
    93   35   98 1   
    94   35   99 1   
    95   36   37 1   
    96   36  100 1   
    97   36  101 1   
    98   37   38 1   
    99   37  102 1   
   100   37  103 1   
   101   38   39 1   
   102   38  104 1   
   103   38  105 1   
   104   39   40 1   
   105   39  106 1   
   106   39  107 1   
   107   40  108 1   
   108   40  109 1   
   109   40  110 1   
@<TRIPOS>SUBSTRUCTURE
     1 2WA         1 TEMP              0 ****  ****    0 ROOT
