@<TRIPOS>MOLECULE
molecule
  110   109     1     0     0
SMALL
bcc


@<TRIPOS>ATOM
      1 CBE          0.0000     0.0000     0.0000 c3         1 2WA      -0.092100
      2 CBD          1.5300     0.0000     0.0000 c3         1 2WA      -0.084400
      3 CBC          2.0410     0.0000     1.4420 c3         1 2WA      -0.081400
      4 CBB          3.5710     0.0010     1.4410 c3         1 2WA      -0.082400
      5 CBA          4.0810     0.0010     2.8840 c3         1 2WA      -0.081400
      6 CAZ          5.6110     0.0010     2.8840 c3         1 2WA      -0.083400
      7 CAY          6.1220     0.0010     4.3260 c3         1 2WA      -0.077400
      8 CAX          7.6520     0.0020     4.3250 c3         1 2WA      -0.048200
      9 CAW          8.1550     0.0010     5.7460 c2         1 2WA      -0.176200
     10 CAV          8.9860    -0.9280     6.1460 c2         1 2WA      -0.177200
     11 CAU          9.4900    -0.9270     7.5660 c3         1 2WA      -0.047200
     12 CAT          9.1940    -2.2830     8.2120 c3         1 2WA      -0.077400
     13 CAS          9.7060    -2.2820     9.6550 c3         1 2WA      -0.083400
     14 CAR          9.4100    -3.6380    10.3000 c3         1 2WA      -0.078400
     15 CAQ          9.9210    -3.6380    11.7420 c3         1 2WA      -0.084400
     16 CAP          9.6270    -4.9940    12.3880 c3         1 2WA      -0.082400
     17 CAO         10.1360    -4.9930    13.8310 c3         1 2WA       0.337900
     18 OAD          9.3970    -4.0400    14.5980 oh         1 2WA      -0.624800
     19 OAN          9.9680    -6.2940    14.3960 os         1 2WA      -0.383600
     20 CAM         10.5160    -6.4340    15.7080 c3         1 2WA       0.155100
     21 CAL          9.4540    -6.0710    16.7480 c3         1 2WA       0.119400
     22 OAK          8.3830    -7.0160    16.6830 oh         1 2WA      -0.569800
     23 CBI         10.9660    -7.8800    15.9210 c3         1 2WA       0.143400
     24 OBJ          9.8260    -8.7420    15.8950 os         1 2WA      -0.376600
     25 CBK         10.1370   -10.1240    16.0860 c3         1 2WA       0.335900
     26 OCC         10.9240   -10.5910    14.9890 oh         1 2WA      -0.620800
     27 CBL          8.8400   -10.9320    16.1640 c3         1 2WA      -0.073400
     28 CBM          9.1680   -12.3900    16.4920 c3         1 2WA      -0.084400
     29 CBN          7.8720   -13.1990    16.5700 c3         1 2WA      -0.079400
     30 CBO          8.1990   -14.6570    16.8990 c3         1 2WA      -0.082400
     31 CBP          6.9020   -15.4660    16.9770 c3         1 2WA      -0.081400
     32 CBQ          7.2300   -16.9240    17.3060 c3         1 2WA      -0.082400
     33 CBR          5.9330   -17.7320    17.3830 c3         1 2WA      -0.082400
     34 CBS          6.2610   -19.1900    17.7110 c3         1 2WA      -0.082400
     35 CBT          4.9640   -19.9990    17.7890 c3         1 2WA      -0.082400
     36 CBU          5.2910   -21.4580    18.1170 c3         1 2WA      -0.082400
     37 CBV          3.9950   -22.2660    18.1960 c3         1 2WA      -0.082400
     38 CBW          4.3220   -23.7240    18.5230 c3         1 2WA      -0.081400
     39 CBX          3.0260   -24.5320    18.6020 c3         1 2WA      -0.084400
     40 CBY          3.3530   -25.9910    18.9300 c3         1 2WA      -0.092100
     41 H1          -0.3610    -0.0340    -1.0210 hc         1 2WA       0.032367
     42 H2          -0.3610    -0.8670     0.5400 hc         1 2WA       0.032367
     43 H3          -0.3610     0.9010     0.4810 hc         1 2WA       0.032367
     44 H4           1.8910     0.8840    -0.5110 hc         1 2WA       0.039700
     45 H5           1.8910    -0.8840    -0.5110 hc         1 2WA       0.039700
     46 H6           1.6800    -0.8850     1.9530 hc         1 2WA       0.041200
     47 H7           1.6790     0.8840     1.9530 hc         1 2WA       0.041200
     48 H8           3.9310     0.8860     0.9310 hc         1 2WA       0.040700
     49 H9           3.9320    -0.8830     0.9300 hc         1 2WA       0.040700
     50 H10          3.7200    -0.8840     3.3940 hc         1 2WA       0.041200
     51 H11          3.7200     0.8850     3.3940 hc         1 2WA       0.041200
     52 H12          5.9720     0.8850     2.3730 hc         1 2WA       0.040700
     53 H13          5.9720    -0.8840     2.3730 hc         1 2WA       0.040700
     54 H14          5.7610    -0.8840     4.8360 hc         1 2WA       0.043200
     55 H15          5.7600     0.8850     4.8370 hc         1 2WA       0.043200
     56 H16          8.0130     0.8870     3.8150 hc         1 2WA       0.045700
     57 H17          8.0130    -0.8830     3.8140 hc         1 2WA       0.045700
     58 H18          7.8290     0.7700     6.4360 ha         1 2WA       0.124000
     59 H19          9.3130    -1.6960     5.4560 ha         1 2WA       0.124000
     60 H20         10.5580    -0.7500     7.5710 hc         1 2WA       0.045200
     61 H21          8.9920    -0.1440     8.1260 hc         1 2WA       0.045200
     62 H22          9.6920    -3.0650     7.6530 hc         1 2WA       0.044700
     63 H23          8.1260    -2.4600     8.2080 hc         1 2WA       0.044700
     64 H24          9.2070    -1.5000    10.2140 hc         1 2WA       0.040200
     65 H25         10.7740    -2.1050     9.6590 hc         1 2WA       0.040200
     66 H26          8.3410    -3.8150    10.2960 hc         1 2WA       0.045200
     67 H27          9.9080    -4.4210     9.7410 hc         1 2WA       0.045200
     68 H28          9.4220    -2.8560    12.3020 hc         1 2WA       0.040700
     69 H29         10.9890    -3.4600    11.7470 hc         1 2WA       0.040700
     70 H30          8.5580    -5.1720    12.3830 hc         1 2WA       0.067200
     71 H31         10.1260    -5.7760    11.8290 hc         1 2WA       0.067200
     72 H32         11.1870    -4.7290    13.8420 h2         1 2WA       0.011700
     73 H33          9.9500    -3.3030    14.8000 ho         1 2WA       0.402000
     74 H34         11.3670    -5.7720    15.8150 h1         1 2WA       0.036700
     75 H35          9.0720    -5.0780    16.5430 h1         1 2WA       0.026700
     76 H36          9.8950    -6.0920    17.7370 h1         1 2WA       0.026700
     77 H37          7.6800    -6.7340    17.2440 ho         1 2WA       0.388000
     78 H38         11.4610    -7.9660    16.8810 h1         1 2WA       0.028700
     79 H39         11.6520    -8.1650    15.1330 h1         1 2WA       0.028700
     80 H40         10.6940   -10.2450    17.0070 h2         1 2WA       0.008700
     81 H41         11.7660   -10.8750    15.3040 ho         1 2WA       0.397000
     82 H42          8.2040   -10.5210    16.9380 hc         1 2WA       0.065700
     83 H43          8.3270   -10.8830    15.2110 hc         1 2WA       0.065700
     84 H44          9.6810   -12.4390    17.4450 hc         1 2WA       0.041700
     85 H45          9.8040   -12.8010    15.7180 hc         1 2WA       0.041700
     86 H46          7.2350   -12.7890    17.3450 hc         1 2WA       0.043700
     87 H47          7.3580   -13.1510    15.6170 hc         1 2WA       0.043700
     88 H48          8.7130   -14.7060    17.8510 hc         1 2WA       0.040200
     89 H49          8.8350   -15.0680    16.1240 hc         1 2WA       0.040200
     90 H50          6.3880   -15.4170    16.0240 hc         1 2WA       0.041700
     91 H51          6.2660   -15.0550    17.7520 hc         1 2WA       0.041700
     92 H52          7.7430   -16.9730    18.2580 hc         1 2WA       0.040200
     93 H53          7.8660   -17.3350    16.5310 hc         1 2WA       0.040200
     94 H54          5.2970   -17.3220    18.1570 hc         1 2WA       0.041200
     95 H55          5.4200   -17.6830    16.4300 hc         1 2WA       0.041200
     96 H56          6.8970   -19.6010    16.9360 hc         1 2WA       0.040700
     97 H57          6.7750   -19.2390    18.6640 hc         1 2WA       0.040700
     98 H58          4.3290   -19.5890    18.5650 hc         1 2WA       0.041200
     99 H59          4.4500   -19.9500    16.8370 hc         1 2WA       0.041200
    100 H60          5.9270   -21.8690    17.3410 hc         1 2WA       0.040700
    101 H61          5.8060   -21.5080    19.0690 hc         1 2WA       0.040700
    102 H62          3.3600   -21.8560    18.9710 hc         1 2WA       0.040700
    103 H63          3.4810   -22.2170    17.2440 hc         1 2WA       0.040700
    104 H64          4.8370   -23.7730    19.4750 hc         1 2WA       0.040700
    105 H65          4.9570   -24.1350    17.7480 hc         1 2WA       0.040700
    106 H66          2.3910   -24.1220    19.3780 hc         1 2WA       0.039700
    107 H67          2.5110   -24.4830    17.6500 hc         1 2WA       0.039700
    108 H68          3.9740   -26.4070    18.1450 hc         1 2WA       0.032367
    109 H69          3.8840   -26.0390    19.8730 hc         1 2WA       0.032367
    110 H70          2.4340   -26.5600    19.0030 hc         1 2WA       0.032367
@<TRIPOS>BOND
     1     1     2 1   
     2     2     3 1   
     3     3     4 1   
     4     4     5 1   
     5     5     6 1   
     6     6     7 1   
     7     7     8 1   
     8    18    17 1   
     9    22    21 1   
    10    14    13 1   
    11    14    15 1   
    12     8     9 1   
    13    13    12 1   
    14    19    17 1   
    15    19    20 1   
    16     9    10 2   
    17    10    11 1   
    18    17    16 1   
    19    12    11 1   
    20    16    15 1   
    21    21    20 1   
    22    20    23 1   
    23    23    24 1   
    24    24    25 1   
    25    26    25 1   
    26    25    27 1   
    27    27    28 1   
    28    28    29 1   
    29    30    29 1   
    30    30    31 1   
    31    31    32 1   
    32    32    33 1   
    33    33    34 1   
    34    34    35 1   
    35    40    39 1   
    36    35    36 1   
    37    38    39 1   
    38    38    37 1   
    39    36    37 1   
    40     1    41 1   
    41     1    42 1   
    42     1    43 1   
    43     2    44 1   
    44     2    45 1   
    45     3    46 1   
    46     3    47 1   
    47     4    48 1   
    48     4    49 1   
    49     5    50 1   
    50     5    51 1   
    51     6    52 1   
    52     6    53 1   
    53     7    54 1   
    54     7    55 1   
    55     8    56 1   
    56     8    57 1   
    57     9    58 1   
    58    10    59 1   
    59    11    60 1   
    60    11    61 1   
    61    12    62 1   
    62    12    63 1   
    63    13    64 1   
    64    13    65 1   
    65    14    66 1   
    66    14    67 1   
    67    15    68 1   
    68    15    69 1   
    69    16    70 1   
    70    16    71 1   
    71    17    72 1   
    72    18    73 1   
    73    20    74 1   
    74    21    75 1   
    75    21    76 1   
    76    22    77 1   
    77    23    78 1   
    78    23    79 1   
    79    25    80 1   
    80    26    81 1   
    81    27    82 1   
    82    27    83 1   
    83    28    84 1   
    84    28    85 1   
    85    29    86 1   
    86    29    87 1   
    87    30    88 1   
    88    30    89 1   
    89    31    90 1   
    90    31    91 1   
    91    32    92 1   
    92    32    93 1   
    93    33    94 1   
    94    33    95 1   
    95    34    96 1   
    96    34    97 1   
    97    35    98 1   
    98    35    99 1   
    99    36   100 1   
   100    36   101 1   
   101    37   102 1   
   102    37   103 1   
   103    38   104 1   
   104    38   105 1   
   105    39   106 1   
   106    39   107 1   
   107    40   108 1   
   108    40   109 1   
   109    40   110 1   
@<TRIPOS>SUBSTRUCTURE
     1 2WA         1 TEMP              0 ****  ****    0 ROOT
