@<TRIPOS>MOLECULE
2WB
   36    38     1     0     0
SMALL
bcc


@<TRIPOS>ATOM
      1 O1          0.1360   -0.0030    0.2260 os        1 2WB     -0.294800
      2 C2          1.5310   -0.0110    0.2530 cc        1 2WB      0.358200
      3 C3          2.2090   -0.0260   -1.0240 ca        1 2WB     -0.179500
      4 C4          1.7700   -0.8260   -2.0960 ca        1 2WB      0.036700
      5 C5          2.4310   -0.7090   -3.3360 ca        1 2WB     -0.131000
      6 C7          3.5250    0.1300   -3.4860 ca        1 2WB     -0.122000
      7 C8          3.9900    0.8800   -2.4010 ca        1 2WB     -0.174000
      8 C9          3.3290    0.8100   -1.1830 ca        1 2WB     -0.110000
      9 C13         0.6670   -1.8040   -1.9830 c3        1 2WB     -0.194100
     10 C14        -0.5820   -1.3870   -2.8110 c         1 2WB      0.931600
     11 O15        -1.6240   -1.0810   -2.1680 o         1 2WB     -0.833300
     12 O17        -0.4840   -1.4220   -4.0660 o         1 2WB     -0.833300
     13 C20         1.9750    0.0190    1.5710 cd        1 2WB     -0.296300
     14 C21         0.8040    0.0260    2.4060 cd        1 2WB     -0.249300
     15 C22        -0.2960    0.0060    1.5560 cc        1 2WB      0.275200
     16 C23        -1.7200   -0.0220    1.7740 ca        1 2WB     -0.119500
     17 C24        -2.6120   -0.0420    0.6830 ca        1 2WB     -0.029000
     18 C26        -3.9860   -0.0460    0.9520 ca        1 2WB     -0.165200
     19 N27        -4.9730    0.0020   -0.1640 no        1 2WB      0.315200
     20 O28        -6.0110   -0.6000   -0.0330 o         1 2WB     -0.207000
     21 O29        -4.7480    0.6770   -1.1260 o         1 2WB     -0.207000
     22 C30        -4.4830   -0.0820    2.2670 ca        1 2WB     -0.091000
     23 C32        -3.5840   -0.0710    3.3270 ca        1 2WB     -0.155000
     24 C34        -2.2120   -0.0330    3.0860 ca        1 2WB     -0.101000
     25 H1          2.0150   -1.2740   -4.1880 ha        1 2WB      0.173000
     26 H2          4.0250    0.2130   -4.4620 ha        1 2WB      0.116000
     27 H3          4.8650    1.5340   -2.5170 ha        1 2WB      0.112000
     28 H4          3.6690    1.4180   -0.3320 ha        1 2WB      0.117000
     29 H5          1.0100   -2.7910   -2.3900 hc        1 2WB      0.045700
     30 H6          0.3540   -1.9510   -0.9190 hc        1 2WB      0.045700
     31 H8          3.0050    0.0220    1.9130 ha        1 2WB      0.151000
     32 H9          0.7970    0.0400    3.4910 ha        1 2WB      0.144000
     33 H10        -2.2200   -0.0860   -0.3660 ha        1 2WB      0.258000
     34 H11        -5.5680   -0.1230    2.4520 ha        1 2WB      0.151000
     35 H12        -3.9590   -0.0950    4.3600 ha        1 2WB      0.130000
     36 H13        -1.5070   -0.0180    3.9320 ha        1 2WB      0.132000
@<TRIPOS>BOND
     1    1    2 1   
     2    1   15 1   
     3    2    3 1   
     4    2   13 2   
     5    3    4 ar  
     6    3    8 ar  
     7    4    5 ar  
     8    4    9 1   
     9    5    6 ar  
    10    5   25 1   
    11    6    7 ar  
    12    6   26 1   
    13    7    8 ar  
    14    7   27 1   
    15    8   28 1   
    16    9   10 1   
    17    9   29 1   
    18    9   30 1   
    19   10   11 1   
    20   10   12 1   
    21   13   14 1   
    22   13   31 1   
    23   14   15 2   
    24   14   32 1   
    25   15   16 1   
    26   16   17 ar  
    27   16   24 ar  
    28   17   18 ar  
    29   17   33 1   
    30   18   19 1   
    31   18   22 ar  
    32   19   20 1   
    33   19   21 1   
    34   22   23 ar  
    35   22   34 1   
    36   23   24 ar  
    37   23   35 1   
    38   24   36 1   
@<TRIPOS>SUBSTRUCTURE
     1 2WB         1 TEMP              0 ****  ****    0 ROOT
