@<TRIPOS>MOLECULE
2WC
   50    53     1     0     0
SMALL
bcc


@<TRIPOS>ATOM
      1 CAW          0.0000     0.0000     0.0000 c3         1 2WC      -0.020900
      2 CAX          1.5300     0.0000     0.0000 c3         1 2WC      -0.023400
      3 CAY          2.0400     0.0000     1.4430 c3         1 2WC      -0.025400
      4 CAZ          1.5290    -1.2490     2.1640 c3         1 2WC      -0.023400
      5 CBA         -0.0010    -1.2480     2.1640 c3         1 2WC      -0.020900
      6 CAV         -0.5100    -1.2470     0.7220 c3         1 2WC      -0.061700
      7 CAU         -2.0410    -1.2470     0.7220 c3         1 2WC       0.219400
      8 O6          -2.5180    -2.4680     1.2920 os         1 2WC      -0.440100
      9 C6          -3.8610    -2.6280     1.3670 ca         1 2WC       0.682600
     10 N1          -4.6830    -1.6810     0.9250 nb         1 2WC      -0.736000
     11 C2          -5.9990    -1.8290     0.9940 ca         1 2WC       0.712900
     12 N2          -6.8120    -0.8130     0.5190 nv         1 2WC      -0.635500
     13 N3          -6.5620    -2.9130     1.5000 nb         1 2WC      -0.599000
     14 C4          -5.8080    -3.9140     1.9670 ca         1 2WC       0.561300
     15 N9          -6.0790    -5.1080     2.5230 nc         1 2WC      -0.587700
     16 C5          -4.4090    -3.7920     1.9040 ca         1 2WC      -0.558800
     17 N7          -3.8940    -4.9560     2.4410 na         1 2WC       0.288700
     18 C8          -4.9570    -5.7290     2.8130 cd         1 2WC       0.346400
     19 CAJ         -4.8610    -7.0650     3.4380 ca         1 2WC      -0.190900
     20 CAK         -3.6190    -7.6920     3.5620 ca         1 2WC      -0.118000
     21 CAL         -3.5270    -8.9400     4.1440 ca         1 2WC      -0.157000
     22 CAM         -4.6610    -9.5780     4.6080 ca         1 2WC      -0.035000
     23 CAN         -5.9090    -8.9630     4.4900 ca         1 2WC      -0.121600
     24 CAQ         -7.1210    -9.6460     4.9860 c          1 2WC       0.977200
     25 OAS         -8.2180    -9.1630     4.7820 o          1 2WC      -0.874800
     26 OAR         -7.0120   -10.8050     5.6640 o          1 2WC      -0.874800
     27 CAO         -6.0080    -7.7000     3.9080 ca         1 2WC       0.035700
     28 CAP         -7.3500    -7.0270     3.7820 c3         1 2WC      -0.043800
     29 HAW1        -0.3600    -0.0040    -1.0220 hc         1 2WC       0.018700
     30 HAW2        -0.3600     0.8840     0.5120 hc         1 2WC       0.018700
     31 HAX1         1.8900     0.8860    -0.5090 hc         1 2WC       0.011950
     32 HAX2         1.8900    -0.8860    -0.5090 hc         1 2WC       0.011950
     33 HAV         -0.1450    -2.1310     0.2130 hc         1 2WC       0.036700
     34 HAY1         1.6770     0.8840     1.9530 hc         1 2WC       0.010700
     35 HAY2         3.1230    -0.0030     1.4420 hc         1 2WC       0.010700
     36 HAZ1         1.8890    -2.1330     1.6520 hc         1 2WC       0.011950
     37 HAZ2         1.8890    -1.2460     3.1860 hc         1 2WC       0.011950
     38 HBA1        -0.3610    -2.1340     2.6730 hc         1 2WC       0.018700
     39 HBA2        -0.3600    -0.3620     2.6730 hc         1 2WC       0.018700
     40 HAU1        -2.4020    -1.1590    -0.2950 h1         1 2WC       0.012700
     41 HAU2        -2.4020    -0.4100     1.3070 h1         1 2WC       0.012700
     42 H21N        -7.1150    -0.8190    -0.4350 hn         1 2WC       0.270800
     43 H22N        -7.1140    -0.0840     1.1350 hn         1 2WC       0.270800
     44 H7          -2.9250    -5.1860     2.5460 hn         1 2WC       0.135700
     45 HAK         -2.7250    -7.1980     3.2010 ha         1 2WC       0.073000
     46 HAL         -2.5620    -9.4220     4.2390 ha         1 2WC       0.088000
     47 HAM         -4.5820   -10.5580     5.0640 ha         1 2WC       0.129000
     48 HAP1        -8.0010    -7.3690     4.5770 hc         1 2WC       0.050033
     49 HAP2        -7.7900    -7.2760     2.8230 hc         1 2WC       0.050033
     50 HAP3        -7.2240    -5.9540     3.8540 hc         1 2WC       0.050033
@<TRIPOS>BOND
     1     1     2 1   
     2     1     6 1   
     3     1    29 1   
     4     1    30 1   
     5     2     3 1   
     6     2    31 1   
     7     2    32 1   
     8     3     4 1   
     9     3    34 1   
    10     3    35 1   
    11     4     5 1   
    12     4    36 1   
    13     4    37 1   
    14     5     6 1   
    15     5    38 1   
    16     5    39 1   
    17     6     7 1   
    18     6    33 1   
    19     7     8 1   
    20     7    40 1   
    21     7    41 1   
    22     8     9 1   
    23     9    10 ar  
    24     9    16 ar  
    25    10    11 ar  
    26    11    12 1   
    27    11    13 ar  
    28    12    42 1   
    29    12    43 1   
    30    13    14 ar  
    31    14    15 1   
    32    14    16 ar  
    33    15    18 2   
    34    16    17 1   
    35    17    18 1   
    36    17    44 1   
    37    18    19 1   
    38    19    20 ar  
    39    19    27 ar  
    40    20    21 ar  
    41    20    45 1   
    42    21    22 ar  
    43    21    46 1   
    44    22    23 ar  
    45    22    47 1   
    46    23    24 1   
    47    23    27 ar  
    48    24    25 1   
    49    24    26 1   
    50    27    28 1   
    51    28    48 1   
    52    28    49 1   
    53    28    50 1   
@<TRIPOS>SUBSTRUCTURE
     1 2WC         1 TEMP              0 ****  ****    0 ROOT
