@<TRIPOS>MOLECULE
molecule
   50    53     1     0     0
SMALL
bcc


@<TRIPOS>ATOM
      1 CAW          0.0000     0.0000     0.0000 c3         1 2WC      -0.073400
      2 CAX          1.5300     0.0000     0.0000 c3         1 2WC      -0.078900
      3 CAY          2.0400     0.0000     1.4430 c3         1 2WC      -0.080400
      4 CAZ          1.5290    -1.2490     2.1640 c3         1 2WC      -0.078900
      5 CBA         -0.0010    -1.2480     2.1640 c3         1 2WC      -0.073400
      6 CAV         -0.5100    -1.2470     0.7220 c3         1 2WC      -0.074700
      7 CAU         -2.0410    -1.2470     0.7220 c3         1 2WC       0.152400
      8 O6          -2.5180    -2.4680     1.2920 os         1 2WC      -0.453100
      9 C6          -3.8610    -2.6280     1.3670 ca         1 2WC       0.705600
     10 N1          -4.6830    -1.6810     0.9250 nb         1 2WC      -0.842000
     11 C2          -5.9990    -1.8290     0.9940 ca         1 2WC       0.939900
     12 N2          -6.8120    -0.8130     0.5190 nv         1 2WC      -1.055500
     13 N3          -6.5620    -2.9130     1.5000 nb         1 2WC      -0.731000
     14 C4          -5.8080    -3.9140     1.9670 ca         1 2WC       0.646300
     15 N9          -6.0790    -5.1080     2.5230 nc         1 2WC      -0.672700
     16 C5          -4.4090    -3.7920     1.9040 ca         1 2WC      -0.375800
     17 N7          -3.8940    -4.9560     2.4410 na         1 2WC      -0.249300
     18 C8          -4.9570    -5.7290     2.8130 cd         1 2WC       0.553400
     19 CAJ         -4.8610    -7.0650     3.4380 ca         1 2WC      -0.179900
     20 CAK         -3.6190    -7.6920     3.5620 ca         1 2WC      -0.129000
     21 CAL         -3.5270    -8.9400     4.1440 ca         1 2WC      -0.176000
     22 CAM         -4.6610    -9.5780     4.6080 ca         1 2WC      -0.064000
     23 CAN         -5.9090    -8.9630     4.4900 ca         1 2WC      -0.118600
     24 CAQ         -7.1210    -9.6460     4.9860 c          1 2WC       0.885200
     25 OAS         -8.2180    -9.1630     4.7820 o          1 2WC      -0.828300
     26 OAR         -7.0120   -10.8050     5.6640 o          1 2WC      -0.828300
     27 CAO         -6.0080    -7.7000     3.9080 ca         1 2WC       0.020700
     28 CAP         -7.3500    -7.0270     3.7820 c3         1 2WC      -0.078800
     29 HAW1        -0.3600    -0.0040    -1.0220 hc         1 2WC       0.046200
     30 HAW2        -0.3600     0.8840     0.5120 hc         1 2WC       0.046200
     31 HAX1         1.8900     0.8860    -0.5090 hc         1 2WC       0.039950
     32 HAX2         1.8900    -0.8860    -0.5090 hc         1 2WC       0.039950
     33 HAV         -0.1450    -2.1310     0.2130 hc         1 2WC       0.060700
     34 HAY1         1.6770     0.8840     1.9530 hc         1 2WC       0.038200
     35 HAY2         3.1230    -0.0030     1.4420 hc         1 2WC       0.038200
     36 HAZ1         1.8890    -2.1330     1.6520 hc         1 2WC       0.039950
     37 HAZ2         1.8890    -1.2460     3.1860 hc         1 2WC       0.039950
     38 HBA1        -0.3610    -2.1340     2.6730 hc         1 2WC       0.046200
     39 HBA2        -0.3600    -0.3620     2.6730 hc         1 2WC       0.046200
     40 HAU1        -2.4020    -1.1590    -0.2950 h1         1 2WC       0.048700
     41 HAU2        -2.4020    -0.4100     1.3070 h1         1 2WC       0.048700
     42 H21N        -7.1150    -0.8190    -0.4350 hn         1 2WC       0.436800
     43 H22N        -7.1140    -0.0840     1.1350 hn         1 2WC       0.436800
     44 H7          -2.9250    -5.1860     2.5460 hn         1 2WC       0.309700
     45 HAK         -2.7250    -7.1980     3.2010 ha         1 2WC       0.094000
     46 HAL         -2.5620    -9.4220     4.2390 ha         1 2WC       0.111000
     47 HAM         -4.5820   -10.5580     5.0640 ha         1 2WC       0.159000
     48 HAP1        -8.0010    -7.3690     4.5770 hc         1 2WC       0.071367
     49 HAP2        -7.7900    -7.2760     2.8230 hc         1 2WC       0.071367
     50 HAP3        -7.2240    -5.9540     3.8540 hc         1 2WC       0.071367
@<TRIPOS>BOND
     1     1     2 1
     2     1     6 1
     3     2     3 1
     4     3     4 1
     5     4     5 1
     6     5     6 1
     7     6     7 1
     8     7     8 1
     9     8     9 1
    10     9    10 ar
    11     9    16 ar
    12    10    11 ar
    13    11    12 1
    14    11    13 ar
    15    13    14 ar
    16    14    15 1
    17    14    16 ar
    18    15    18 2
    19    16    17 1
    20    17    18 1
    21    18    19 1
    22    19    20 ar
    23    19    27 ar
    24    20    21 ar
    25    21    22 ar
    26    22    23 ar
    27    23    24 1
    28    23    27 ar
    29    24    25 1
    30    24    26 1
    31    27    28 1
    32     1    29 1
    33     1    30 1
    34     2    31 1
    35     2    32 1
    36     6    33 1
    37     3    34 1
    38     3    35 1
    39     4    36 1
    40     4    37 1
    41     5    38 1
    42     5    39 1
    43     7    40 1
    44     7    41 1
    45    12    42 1
    46    12    43 1
    47    17    44 1
    48    20    45 1
    49    21    46 1
    50    22    47 1
    51    28    48 1
    52    28    49 1
    53    28    50 1
@<TRIPOS>SUBSTRUCTURE
     1 2WC         1 TEMP              0 ****  ****    0 ROOT
