@<TRIPOS>MOLECULE
molecule
   49    48     1     0     0
SMALL
bcc


@<TRIPOS>ATOM
      1 C1           0.0000     0.0000     0.0000 c3         1 2WD       0.121400
      2 C2           1.5300     0.0000     0.0000 c3         1 2WD       0.151100
      3 C3           2.0400     0.0000     1.4430 c3         1 2WD       0.145400
      4 O11         -0.4760    -1.1030     0.7730 oh         1 2WD      -0.563800
      5 C21          2.2000    -0.9890    -2.0780 c3         1 2WD       0.334900
      6 O21          2.0060    -1.1660    -0.6740 os         1 2WD      -0.391600
      7 C22          2.4660    -2.3460    -2.7320 c3         1 2WD      -0.078400
      8 O22          3.3170    -0.1260    -2.3000 oh         1 2WD      -0.623800
      9 C23          2.5490    -2.1730    -4.2500 c3         1 2WD      -0.083400
     10 C24          2.8150    -3.5300    -4.9050 c3         1 2WD      -0.081400
     11 C25          2.8980    -3.3570    -6.4230 c3         1 2WD      -0.092100
     12 C31          1.8850    -1.1950     3.5130 c3         1 2WD       0.335900
     13 O31          1.4710    -1.1030     2.1490 os         1 2WD      -0.379600
     14 C32          1.4230    -2.5320     4.0970 c3         1 2WD      -0.074400
     15 O32          1.3050    -0.1240     4.2610 oh         1 2WD      -0.623800
     16 C33          1.9730    -2.6850     5.5170 c3         1 2WD      -0.084400
     17 C34          1.5110    -4.0220     6.1010 c3         1 2WD      -0.078400
     18 C35          2.0600    -4.1750     7.5210 c3         1 2WD      -0.084400
     19 C36          1.5990    -5.5120     8.1050 c3         1 2WD      -0.092100
     20 H1          -0.3610    -0.0890    -1.0170 h1         1 2WD       0.017700
     21 H2          -0.3610     0.9260     0.4320 h1         1 2WD       0.017700
     22 H3           1.8900     0.8850    -0.5100 h1         1 2WD       0.048700
     23 H4           3.1200    -0.0890     1.4440 h1         1 2WD       0.031700
     24 H5           1.7530     0.9260     1.9270 h1         1 2WD       0.031700
     25 H6          -1.4060    -1.1970     0.6480 ho         1 2WD       0.389000
     26 H7           1.3110    -0.5470    -2.5120 h2         1 2WD       0.013700
     27 H8           1.6600    -3.0280    -2.4900 hc         1 2WD       0.065700
     28 H9           3.4020    -2.7470    -2.3630 hc         1 2WD       0.065700
     29 H10          3.0500     0.6040    -2.8340 ho         1 2WD       0.402000
     30 H11          1.6130    -1.7720    -4.6190 hc         1 2WD       0.041700
     31 H12          3.3540    -1.4910    -4.4930 hc         1 2WD       0.041700
     32 H13          3.7510    -3.9320    -4.5360 hc         1 2WD       0.043700
     33 H14          2.0090    -4.2120    -4.6640 hc         1 2WD       0.043700
     34 H15          1.9710    -2.9340    -6.7900 hc         1 2WD       0.033367
     35 H16          3.0640    -4.3220    -6.8880 hc         1 2WD       0.033367
     36 H17          3.7200    -2.6940    -6.6670 hc         1 2WD       0.033367
     37 H18          2.9650    -1.1310     3.5680 h2         1 2WD       0.013700
     38 H19          1.7900    -3.3420     3.4790 hc         1 2WD       0.065200
     39 H20          0.3400    -2.5600     4.1240 hc         1 2WD       0.065200
     40 H21          1.9900     0.4040     4.6360 ho         1 2WD       0.398000
     41 H22          3.0550    -2.6570     5.4900 hc         1 2WD       0.041700
     42 H23          1.6060    -1.8740     6.1360 hc         1 2WD       0.041700
     43 H24          1.8780    -4.8320     5.4830 hc         1 2WD       0.043700
     44 H25          0.4280    -4.0500     6.1280 hc         1 2WD       0.043700
     45 H26          1.6920    -3.3650     8.1400 hc         1 2WD       0.039700
     46 H27          3.1420    -4.1460     7.4950 hc         1 2WD       0.039700
     47 H28          1.9670    -5.6080     9.1200 hc         1 2WD       0.032700
     48 H29          0.5160    -5.5500     8.1090 hc         1 2WD       0.032700
     49 H30          1.9870    -6.3230     7.5020 hc         1 2WD       0.032700
@<TRIPOS>BOND
     1    18    19 1
     2    18    17 1
     3    16    17 1
     4    16    14 1
     5    15    12 1
     6    12    14 1
     7    12    13 1
     8    13     3 1
     9     3     2 1
    10     2     1 1
    11     2     6 1
    12     1     4 1
    13    11    10 1
    14     6     5 1
    15     9    10 1
    16     9     7 1
    17     5     7 1
    18     5     8 1
    19     1    20 1
    20     1    21 1
    21     2    22 1
    22     3    23 1
    23     3    24 1
    24     4    25 1
    25     5    26 1
    26     7    27 1
    27     7    28 1
    28     8    29 1
    29     9    30 1
    30     9    31 1
    31    10    32 1
    32    10    33 1
    33    11    34 1
    34    11    35 1
    35    11    36 1
    36    12    37 1
    37    14    38 1
    38    14    39 1
    39    15    40 1
    40    16    41 1
    41    16    42 1
    42    17    43 1
    43    17    44 1
    44    18    45 1
    45    18    46 1
    46    19    47 1
    47    19    48 1
    48    19    49 1
@<TRIPOS>SUBSTRUCTURE
     1 2WD         1 TEMP              0 ****  ****    0 ROOT
