@<TRIPOS>MOLECULE
2WD
   49    48     1     0     0
SMALL
bcc


@<TRIPOS>ATOM
      1 C1         -0.5760   -0.0460    0.3580 c3        1 2WD      0.113400
      2 C2          0.8000    0.6140    0.2340 c3        1 2WD      0.074100
      3 C3          1.1610    1.4160    1.4910 c3        1 2WD      0.134400
      4 O11        -0.5300   -1.2750    1.0480 oh        1 2WD     -0.603800
      5 C21         1.8120   -1.0620   -1.1530 c3        1 2WD      0.328900
      6 O21         1.8380   -0.3540    0.0810 os        1 2WD     -0.460600
      7 C22         2.7960   -2.2210   -1.0100 c3        1 2WD     -0.103400
      8 O22         2.1800   -0.1160   -2.1270 oh        1 2WD     -0.623800
      9 C23         2.7680   -3.0900   -2.2470 c3        1 2WD     -0.080400
     10 C24         3.8040   -4.1920   -2.1640 c3        1 2WD     -0.078400
     11 C25         3.7710   -5.0700   -3.3880 c3        1 2WD     -0.093100
     12 C31         2.1880   -0.0710    3.0630 c3        1 2WD      0.321900
     13 O31         1.0140    0.6350    2.6680 os        1 2WD     -0.466600
     14 C32         1.7480   -1.1670    4.0350 c3        1 2WD     -0.111400
     15 O32         3.0030    0.9090    3.6560 oh        1 2WD     -0.620800
     16 C33         1.9240   -2.5400    3.4220 c3        1 2WD     -0.082400
     17 C34         1.4370   -3.6210    4.3630 c3        1 2WD     -0.078400
     18 C35         1.6220   -4.9970    3.7600 c3        1 2WD     -0.080400
     19 C36         1.1380   -6.0780    4.6910 c3        1 2WD     -0.093100
     20 H1         -1.2760    0.6620    0.8780 h1        1 2WD      0.048200
     21 H2         -0.9890   -0.3010   -0.6540 h1        1 2WD      0.048200
     22 H3          0.8040    1.3050   -0.6550 h1        1 2WD      0.064700
     23 H4          2.2040    1.8190    1.4090 h1        1 2WD      0.065200
     24 H5          0.4250    2.2550    1.6150 h1        1 2WD      0.065200
     25 H6         -0.0650   -1.1150    1.8830 ho        1 2WD      0.419000
     26 H7          0.7770   -1.4040   -1.4280 h2        1 2WD      0.089700
     27 H8          3.8270   -1.8160   -0.8410 hc        1 2WD      0.058200
     28 H9          2.5120   -2.8160   -0.1030 hc        1 2WD      0.058200
     29 H10         3.0780    0.1800   -1.9330 ho        1 2WD      0.411000
     30 H11         1.7480   -3.5410   -2.3690 hc        1 2WD      0.048700
     31 H12         2.9600   -2.4540   -3.1510 hc        1 2WD      0.048700
     32 H13         3.6170   -4.8130   -1.2480 hc        1 2WD      0.039200
     33 H14         4.8240   -3.7390   -2.0530 hc        1 2WD      0.039200
     34 H15         3.9750   -4.4720   -4.3090 hc        1 2WD      0.034367
     35 H16         4.5440   -5.8730   -3.3100 hc        1 2WD      0.034367
     36 H17         2.7710   -5.5540   -3.5000 hc        1 2WD      0.034367
     37 H18         2.7680   -0.4630    2.1810 h2        1 2WD      0.105700
     38 H19         0.6740   -1.0080    4.3150 hc        1 2WD      0.061200
     39 H20         2.3620   -1.0840    4.9690 hc        1 2WD      0.061200
     40 H21         2.5130    1.3020    4.3890 ho        1 2WD      0.411000
     41 H22         3.0080   -2.7090    3.1840 hc        1 2WD      0.048700
     42 H23         1.3600   -2.5980    2.4530 hc        1 2WD      0.048700
     43 H24         1.9970   -3.5570    5.3330 hc        1 2WD      0.041200
     44 H25         0.3510   -3.4570    4.5950 hc        1 2WD      0.041200
     45 H26         1.0620   -5.0570    2.7890 hc        1 2WD      0.040200
     46 H27         2.7070   -5.1590    3.5250 hc        1 2WD      0.040200
     47 H28         1.7010   -6.0490    5.6560 hc        1 2WD      0.033033
     48 H29         1.2840   -7.0830    4.2280 hc        1 2WD      0.033033
     49 H30         0.0520   -5.9470    4.9170 hc        1 2WD      0.033033
@<TRIPOS>BOND
     1    1    2 1   
     2    1    4 1   
     3    1   20 1   
     4    1   21 1   
     5    2    3 1   
     6    2    6 1   
     7    2   22 1   
     8    3   13 1   
     9    3   23 1   
    10    3   24 1   
    11    4   25 1   
    12    5    6 1   
    13    5    7 1   
    14    5    8 1   
    15    5   26 1   
    16    7    9 1   
    17    7   27 1   
    18    7   28 1   
    19    8   29 1   
    20    9   10 1   
    21    9   30 1   
    22    9   31 1   
    23   10   11 1   
    24   10   32 1   
    25   10   33 1   
    26   11   34 1   
    27   11   35 1   
    28   11   36 1   
    29   12   13 1   
    30   12   14 1   
    31   12   15 1   
    32   12   37 1   
    33   14   16 1   
    34   14   38 1   
    35   14   39 1   
    36   15   40 1   
    37   16   17 1   
    38   16   41 1   
    39   16   42 1   
    40   17   18 1   
    41   17   43 1   
    42   17   44 1   
    43   18   19 1   
    44   18   45 1   
    45   18   46 1   
    46   19   47 1   
    47   19   48 1   
    48   19   49 1   
@<TRIPOS>SUBSTRUCTURE
     1 2WD         1 TEMP              0 ****  ****    0 ROOT
