@<TRIPOS>MOLECULE
2WE
   34    36     1     0     0
SMALL
bcc


@<TRIPOS>ATOM
      1 O2           0.0000     0.0000     0.0000 o          1 2WE      -0.473100
      2 C3           1.2180     0.0000     0.0000 c          1 2WE       0.741700
      3 C4           2.0020     0.0000     1.2320 ce         1 2WE      -0.883400
      4 S5           3.5010    -0.0010     0.7840 sx         1 2WE      -0.195600
      5 C6           3.2280     0.0000    -0.9670 ce         1 2WE       0.801200
      6 N7           1.9320    -0.0060    -1.1200 nf         1 2WE      -0.409100
      7 C8           4.2480     0.0010    -2.0270 ca         1 2WE      -0.113900
      8 C9           5.6170    -0.0050    -1.7110 ca         1 2WE      -0.268300
      9 C10          6.5410    -0.0090    -2.7350 ca         1 2WE       0.464200
     10 N11          6.1590    -0.0090    -3.9970 nb         1 2WE      -0.517000
     11 C12          4.8820    -0.0040    -4.3440 ca         1 2WE       0.387200
     12 C13          3.8830     0.0010    -3.3790 ca         1 2WE      -0.199300
     13 N14          4.5340    -0.0040    -5.6950 ns         1 2WE      -0.108400
     14 C15          5.4940     0.0950    -6.6370 c          1 2WE       0.591100
     15 O16          6.6620     0.0900    -6.3150 o          1 2WE      -0.557100
     16 C17          5.1130     0.2120    -8.0900 cx         1 2WE      -0.233700
     17 C18          5.3880     1.5450    -8.7880 cx         1 2WE      -0.038400
     18 C19          6.2470     0.3210    -9.1110 cx         1 2WE      -0.038400
     19 C20          1.4900    -0.0000     2.6070 c          1 2WE       0.390300
     20 O21          0.2910    -0.0000     2.8080 o          1 2WE      -0.450100
     21 N22          2.3490    -0.0000     3.6450 nz         1 2WE       0.196600
     22 H1           5.9430    -0.0060    -0.6780 ha         1 2WE       0.091000
     23 H2           7.5990    -0.0140    -2.4990 h4         1 2WE      -0.003900
     24 H3           2.8380     0.0050    -3.6670 ha         1 2WE       0.143000
     25 H4           3.5770    -0.1200    -5.9660 hn         1 2WE       0.182500
     26 H5           4.2330    -0.3120    -8.4440 hc         1 2WE       0.068700
     27 H6           4.6740     1.8300    -9.5510 hc         1 2WE       0.055450
     28 H7           5.8650     2.3030    -8.1780 hc         1 2WE       0.055450
     29 H8           6.0570    -0.1430   -10.0720 hc         1 2WE       0.055450
     30 H9           7.2480     0.3300    -8.6980 hc         1 2WE       0.055450
     31 H10          2.9250     0.8170     3.6020 hn         1 2WE       0.231467
     32 H11          2.9250    -0.8170     3.6020 hn         1 2WE       0.231467
     33 H12          4.6240     0.0010     1.4920 hs         1 2WE       0.516000
     34 H223         1.8340    -0.0010     4.5040 hn         1 2WE       0.231467
@<TRIPOS>BOND
     1     1     2 2   
     2     2     3 1   
     3     2     6 1   
     4     3     4 2   
     5     3    19 1   
     6     4     5 1   
     7     4    33 1   
     8     5     6 2   
     9     5     7 1   
    10     7     8 ar  
    11     7    12 ar  
    12     8     9 ar  
    13     8    22 1   
    14     9    10 ar  
    15     9    23 1   
    16    10    11 ar  
    17    11    12 ar  
    18    11    13 1   
    19    12    24 1   
    20    13    14 1   
    21    13    25 1   
    22    14    15 2   
    23    14    16 1   
    24    16    17 1   
    25    16    18 1   
    26    16    26 1   
    27    17    18 1   
    28    17    27 1   
    29    17    28 1   
    30    18    29 1   
    31    18    30 1   
    32    19    20 2   
    33    19    21 1   
    34    21    31 1   
    35    21    32 1   
    36    21    34 1   
@<TRIPOS>SUBSTRUCTURE
     1 2WE         1 TEMP              0 ****  ****    0 ROOT
