@<TRIPOS>MOLECULE
molecule
   37    40     1     0     0
SMALL
bcc


@<TRIPOS>ATOM
      1 C1           0.0000     0.0000     0.0000 ca         1 2WF      -0.122000
      2 C2           1.3590     0.0000     0.0000 ca         1 2WF      -0.099000
      3 C3           2.0810     0.0000     1.2050 cp         1 2WF      -0.045000
      4 C4           1.4230    -0.0010     2.4210 ca         1 2WF      -0.082000
      5 C5           0.0210    -0.0010     2.4440 ca         1 2WF      -0.170300
      6 C6          -0.6980     0.0040     1.2190 ca         1 2WF      -0.008000
      7 C7          -2.1020     0.0040     1.2730 ca         1 2WF      -0.240300
      8 C8          -2.7100    -0.0010     2.4930 ca         1 2WF       0.417200
      9 N9          -2.0150    -0.0050     3.6210 nb         1 2WF      -0.693000
     10 C10         -0.7030    -0.0020     3.6480 ca         1 2WF       0.449200
     11 C11          3.5640    -0.0000     1.1730 cp         1 2WF       0.027000
     12 C12          4.3080    -0.0070     2.3580 ca         1 2WF      -0.286300
     13 C13          5.6840    -0.0130     2.2860 ca         1 2WF       0.458200
     14 N14          6.3040    -0.0120     1.1220 nb         1 2WF      -0.684000
     15 C15          5.6410    -0.0060    -0.0250 ca         1 2WF       0.562200
     16 C16          4.2540    -0.0000    -0.0410 ca         1 2WF      -0.294300
     17 N17          6.3450    -0.0040    -1.2280 ns         1 2WF      -0.551400
     18 C18          7.6890     0.0930    -1.2230 c          1 2WF       0.682100
     19 O19          8.2930     0.0880    -0.1720 o          1 2WF      -0.529100
     20 C20          8.4410     0.2100    -2.5240 cx         1 2WF      -0.241700
     21 C21          9.9650     0.3170    -2.4520 cx         1 2WF      -0.108400
     22 C22          9.3120    -0.9760    -2.9450 cx         1 2WF      -0.108400
     23 H1          -0.5430     0.0000    -0.9370 ha         1 2WF       0.138000
     24 H2           1.8940     0.0010    -0.9420 ha         1 2WF       0.134000
     25 H3           1.9850    -0.0010     3.3480 ha         1 2WF       0.143000
     26 H4          -2.6900     0.0080     0.3630 ha         1 2WF       0.141000
     27 H5          -3.7920    -0.0040     2.5410 h4         1 2WF       0.022100
     28 H6          -0.1800    -0.0060     4.5960 h4         1 2WF       0.027100
     29 H7           3.8090    -0.0080     3.3190 ha         1 2WF       0.139000
     30 H8           6.2660    -0.0180     3.2000 h4         1 2WF       0.030100
     31 H9           3.7140     0.0040    -0.9800 ha         1 2WF       0.136000
     32 H10          5.8520    -0.0830    -2.0960 hn         1 2WF       0.329500
     33 H11          7.9860     0.7520    -3.3440 hc         1 2WF       0.086700
     34 H12         10.4270     0.9290    -3.2170 hc         1 2WF       0.085200
     35 H13         10.3900     0.2760    -1.4560 hc         1 2WF       0.085200
     36 H14          9.3380    -1.8070    -2.2500 hc         1 2WF       0.085200
     37 H15          9.3760    -1.1540    -4.0110 hc         1 2WF       0.085200
@<TRIPOS>BOND
     1    13    14 ar  
     2    13    12 ar  
     3    14    15 ar  
     4    12    11 ar  
     5    15    17 1   
     6    15    16 ar  
     7    17    18 1   
     8    20    18 1   
     9    20    21 1   
    10    20    22 1   
    11    11    16 ar  
    12    11     3 1   
    13    18    19 2   
    14    21    22 1   
    15     4     3 ar  
    16     4     5 ar  
    17     3     2 ar  
    18    10     5 ar  
    19    10     9 ar  
    20     5     6 ar  
    21     2     1 ar  
    22     9     8 ar  
    23     6     1 ar  
    24     6     7 ar  
    25     8     7 ar  
    26     1    23 1   
    27     2    24 1   
    28     4    25 1   
    29     7    26 1   
    30     8    27 1   
    31    10    28 1   
    32    12    29 1   
    33    13    30 1   
    34    16    31 1   
    35    17    32 1   
    36    20    33 1   
    37    21    34 1   
    38    21    35 1   
    39    22    36 1   
    40    22    37 1   
@<TRIPOS>SUBSTRUCTURE
     1 2WF         1 TEMP              0 ****  ****    0 ROOT
