@<TRIPOS>MOLECULE
molecule
   39    41     1     0     0
SMALL
bcc


@<TRIPOS>ATOM
      1 C1           0.0000     0.0000     0.0000 c3         1 2WG       0.124700
      2 O2           1.4290     0.0000     0.0000 os         1 2WG      -0.397100
      3 C3           2.0440     0.0000     1.2050 ca         1 2WG       0.789600
      4 C4           3.4490     0.0020     1.2930 ca         1 2WG      -0.515200
      5 C5           4.0330     0.0010     2.5650 ca         1 2WG       0.523200
      6 N6           3.2520     0.0010     3.6280 nb         1 2WG      -0.739000
      7 C7           1.9300     0.0000     3.5070 cp         1 2WG       0.870500
      8 N8           1.3330     0.0050     2.3240 nb         1 2WG      -0.796000
      9 C9           1.0950    -0.0010     4.7340 cp         1 2WG      -0.129500
     10 C10         -0.3010    -0.0010     4.6520 ca         1 2WG      -0.238300
     11 C11         -1.0430    -0.0020     5.8150 ca         1 2WG       0.457200
     12 N12         -0.4540    -0.0030     6.9950 nb         1 2WG      -0.647000
     13 C13          0.8630    -0.0020     7.1210 ca         1 2WG       0.562200
     14 C14          1.6830    -0.0080     5.9990 ca         1 2WG      -0.246300
     15 N15          1.4350    -0.0020     8.3930 ns         1 2WG      -0.550400
     16 C16          0.6510     0.1070     9.4840 c          1 2WG       0.683100
     17 O17         -0.5560     0.1120     9.3660 o          1 2WG      -0.522100
     18 C18          1.2750     0.2220    10.8510 cx         1 2WG      -0.249700
     19 C19          0.3310     0.3460    12.0500 cx         1 2WG      -0.101400
     20 C20          1.1360     1.5600    11.5800 cx         1 2WG      -0.101400
     21 C21          4.2850     0.0010     0.0770 c          1 2WG       0.511700
     22 O22          3.7600     0.0000    -1.0200 o          1 2WG      -0.400100
     23 N23          5.6270     0.0020     0.1820 nz         1 2WG      -0.677400
     24 H1          -0.3610    -0.8810     0.5170 h1         1 2WG       0.070033
     25 H2          -0.3610     0.8880     0.5040 h1         1 2WG       0.070033
     26 H3          -0.3610    -0.0080    -1.0210 h1         1 2WG       0.070033
     27 H4           5.0960     0.1840     2.6730 h4         1 2WG       0.013100
     28 H5          -0.7880     0.1690     3.6990 ha         1 2WG       0.157000
     29 H6          -2.1250    -0.0030     5.7580 h4         1 2WG       0.047100
     30 H7           2.7420    -0.2090     6.1040 ha         1 2WG       0.155000
     31 H8           2.4250    -0.1080     8.4960 hn         1 2WG       0.334500
     32 H9           2.1970    -0.3100    11.0520 hc         1 2WG       0.088700
     33 H10         -0.7260     0.3650    11.8130 hc         1 2WG       0.088700
     34 H11          0.6770    -0.1180    12.9660 hc         1 2WG       0.088700
     35 H12          0.5700     2.3220    11.0570 hc         1 2WG       0.088700
     36 H13          1.9720     1.8390    12.2100 hc         1 2WG       0.088700
     37 H14          5.9260     0.8380     0.6430 hn         1 2WG       0.475800
     38 H15          6.0340    -0.0390    -0.7320 hn         1 2WG       0.475800
     39 H233         5.9210    -0.7940     0.7130 hn         1 2WG       0.475800
@<TRIPOS>BOND
     1    23    21 1
     2     1     2 1
     3     2     3 1
     4    21    22 2
     5    21     4 1
     6     3     4 ar
     7     3     8 ar
     8     4     5 ar
     9     8     7 ar
    10    19    20 1
    11    19    18 1
    12    17    16 2
    13     5     6 ar
    14    20    18 1
    15     7     6 ar
    16     7     9 1
    17    16    18 1
    18    16    15 1
    19    14     9 ar
    20    14    13 ar
    21     9    10 ar
    22    15    13 1
    23    13    12 ar
    24    10    11 ar
    25    12    11 ar
    26     1    24 1
    27     1    25 1
    28     1    26 1
    29     5    27 1
    30    10    28 1
    31    11    29 1
    32    14    30 1
    33    15    31 1
    34    18    32 1
    35    19    33 1
    36    19    34 1
    37    20    35 1
    38    20    36 1
    39    23    37 1
    40    23    38 1
    41    39    23 1
@<TRIPOS>SUBSTRUCTURE
     1 2WG         1 TEMP              0 ****  ****    0 ROOT
