@<TRIPOS>MOLECULE
2WG
   39    41     1     0     0
SMALL
bcc


@<TRIPOS>ATOM
      1 C1           0.0000     0.0000     0.0000 c3         1 2WG       0.251700
      2 O2           1.4290     0.0000     0.0000 os         1 2WG      -0.389100
      3 C3           2.0440     0.0000     1.2050 ca         1 2WG       0.769600
      4 C4           3.4490     0.0020     1.2930 ca         1 2WG      -0.547200
      5 C5           4.0330     0.0010     2.5650 ca         1 2WG       0.511200
      6 N6           3.2520     0.0010     3.6280 nb         1 2WG      -0.627000
      7 C7           1.9300     0.0000     3.5070 cp         1 2WG       0.801500
      8 N8           1.3330     0.0050     2.3240 nb         1 2WG      -0.690000
      9 C9           1.0950    -0.0010     4.7340 cp         1 2WG      -0.164500
     10 C10         -0.3010    -0.0010     4.6520 ca         1 2WG      -0.200300
     11 C11         -1.0430    -0.0020     5.8150 ca         1 2WG       0.433200
     12 N12         -0.4540    -0.0030     6.9950 nb         1 2WG      -0.514000
     13 C13          0.8630    -0.0020     7.1210 ca         1 2WG       0.365200
     14 C14          1.6830    -0.0080     5.9990 ca         1 2WG      -0.218300
     15 N15          1.4350    -0.0020     8.3930 ns         1 2WG      -0.114400
     16 C16          0.6510     0.1070     9.4840 c          1 2WG       0.588100
     17 O17         -0.5560     0.1120     9.3660 o          1 2WG      -0.561100
     18 C18          1.2750     0.2220    10.8510 cx         1 2WG      -0.231700
     19 C19          0.3310     0.3460    12.0500 cx         1 2WG      -0.041900
     20 C20          1.1360     1.5600    11.5800 cx         1 2WG      -0.041900
     21 C21          4.2850     0.0010     0.0770 c          1 2WG       0.366700
     22 O22          3.7600     0.0000    -1.0200 o          1 2WG      -0.417100
     23 N23          5.6270     0.0020     0.1820 nz         1 2WG       0.203600
     24 H1          -0.3610    -0.8810     0.5170 h1         1 2WG       0.019367
     25 H2          -0.3610     0.8880     0.5040 h1         1 2WG       0.019367
     26 H3          -0.3610    -0.0080    -1.0210 h1         1 2WG       0.019367
     27 H4           5.0960     0.1840     2.6730 h4         1 2WG      -0.038900
     28 H5          -0.7880     0.1690     3.6990 ha         1 2WG       0.129000
     29 H6          -2.1250    -0.0030     5.7580 h4         1 2WG      -0.004900
     30 H7           2.7420    -0.2090     6.1040 ha         1 2WG       0.130000
     31 H8           2.4250    -0.1080     8.4960 hn         1 2WG       0.173500
     32 H9           2.1970    -0.3100    11.0520 hc         1 2WG       0.063700
     33 H10         -0.7260     0.3650    11.8130 hc         1 2WG       0.054450
     34 H11          0.6770    -0.1180    12.9660 hc         1 2WG       0.054450
     35 H12          0.5700     2.3220    11.0570 hc         1 2WG       0.054450
     36 H13          1.9720     1.8390    12.2100 hc         1 2WG       0.054450
     37 H14          5.9260     0.8380     0.6430 hn         1 2WG       0.245467
     38 H15          6.0340    -0.0390    -0.7320 hn         1 2WG       0.245467
     39 H233         5.9210    -0.7940     0.7130 hn         1 2WG       0.245467
@<TRIPOS>BOND
     1     1     2 1   
     2     1    24 1   
     3     1    25 1   
     4     1    26 1   
     5     2     3 1   
     6     3     4 ar  
     7     3     8 ar  
     8     4     5 ar  
     9     4    21 1   
    10     5     6 ar  
    11     5    27 1   
    12     6     7 ar  
    13     7     8 ar  
    14     7     9 1   
    15     9    10 ar  
    16     9    14 ar  
    17    10    11 ar  
    18    10    28 1   
    19    11    12 ar  
    20    11    29 1   
    21    12    13 ar  
    22    13    14 ar  
    23    13    15 1   
    24    14    30 1   
    25    15    16 1   
    26    15    31 1   
    27    16    17 2   
    28    16    18 1   
    29    18    19 1   
    30    18    20 1   
    31    18    32 1   
    32    19    20 1   
    33    19    33 1   
    34    19    34 1   
    35    20    35 1   
    36    20    36 1   
    37    21    22 2   
    38    21    23 1   
    39    23    37 1   
    40    23    38 1   
    41    23    39 1   
@<TRIPOS>SUBSTRUCTURE
     1 2WG         1 TEMP              0 ****  ****    0 ROOT
