@<TRIPOS>MOLECULE
2WH
   55    58     1     0     0
SMALL
bcc


@<TRIPOS>ATOM
      1 C1           0.0000     0.0000     0.0000 c3         1 2WH       0.010900
      2 C2           1.5300     0.0000     0.0000 c3         1 2WH      -0.045400
      3 C3           2.0410     0.0000     1.4430 c3         1 2WH      -0.044700
      4 N4           3.5050     0.0010     1.4420 na         1 2WH       0.289100
      5 C5           4.3170     1.1030     1.4430 cc         1 2WH      -0.423600
      6 C6           5.5870     0.6510     1.4420 cd         1 2WH       0.290600
      7 N7           5.5500    -0.6900     1.4420 nd         1 2WH      -0.607000
      8 C8           4.3070    -1.0860     1.4480 cc         1 2WH       0.225400
      9 C9           6.8290     1.5040     1.4420 c3         1 2WH      -0.034700
     10 C10          7.7180     1.1100     2.6240 c3         1 2WH       0.062000
     11 N11          8.9260     1.9380     2.6240 ns         1 2WH      -0.217900
     12 C12          9.8600     1.7670     3.5790 c          1 2WH       0.545100
     13 O13          9.7010     0.9250     4.4420 o          1 2WH      -0.629100
     14 N14         10.9720     2.5300     3.5790 ns         1 2WH      -0.016400
     15 C15         11.9330     2.3530     4.5620 cc         1 2WH       0.325800
     16 N16         11.8590     1.4920     5.5160 nd         1 2WH      -0.437100
     17 C17         12.8750     1.4380     6.3990 ca         1 2WH       0.104400
     18 C18         13.0270     0.5900     7.5190 ca         1 2WH      -0.047000
     19 C19         14.1300     0.6740     8.3090 ca         1 2WH      -0.092000
     20 C20         15.1370     1.6030     8.0300 cp         1 2WH      -0.036000
     21 C21         15.0100     2.4470     6.9340 ca         1 2WH      -0.037000
     22 C22         13.8840     2.3660     6.1210 ca         1 2WH      -0.025100
     23 S23         13.4280     3.2700     4.6790 ss         1 2WH      -0.248100
     24 C24         16.3350     1.6870     8.8990 cp         1 2WH      -0.102300
     25 C25         16.4730     0.8380    10.0000 ca         1 2WH      -0.115000
     26 C26         17.6170     0.9520    10.7790 ca         1 2WH       0.039800
     27 C27         18.5760     1.8980    10.4410 ca         1 2WH       0.293200
     28 N28         18.4120     2.6840     9.3940 nb         1 2WH      -0.538000
     29 C29         17.3440     2.6100     8.6280 ca         1 2WH       0.354200
     30 O30         17.7970     0.1490    11.8600 os         1 2WH      -0.301900
     31 C31         19.0000     0.3280    12.6100 c3         1 2WH       0.243700
     32 H1          -0.3610     0.8840     0.5120 hc         1 2WH       0.005033
     33 H2          -0.3610     0.0020    -1.0210 hc         1 2WH       0.005033
     34 H3          -0.3610    -0.8850     0.5090 hc         1 2WH       0.005033
     35 H4           1.8910    -0.8840    -0.5110 hc         1 2WH       0.024200
     36 H5           1.8910     0.8840    -0.5110 hc         1 2WH       0.024200
     37 H6           1.6800    -0.8850     1.9530 h1         1 2WH       0.036700
     38 H7           1.6790     0.8840     1.9540 h1         1 2WH       0.036700
     39 H8           4.0000     2.1390     1.4430 h4         1 2WH       0.153000
     40 H9           3.9740    -2.1170     1.4500 h5         1 2WH       0.024100
     41 H10          6.5510     2.5470     1.5320 hc         1 2WH       0.014700
     42 H11          7.3710     1.3530     0.5170 hc         1 2WH       0.014700
     43 H12          7.1770     1.2620     3.5500 h1         1 2WH       0.037700
     44 H13          7.9960     0.0670     2.5350 h1         1 2WH       0.037700
     45 H14          9.0570     2.6310     1.9140 hn         1 2WH       0.162500
     46 H15         11.0920     3.2400     2.8850 hn         1 2WH       0.164500
     47 H16         12.2560    -0.1350     7.7500 ha         1 2WH       0.121000
     48 H17         14.2290     0.0160     9.1640 ha         1 2WH       0.115000
     49 H18         15.7870     3.1690     6.7120 ha         1 2WH       0.119000
     50 H19         15.7080     0.1090    10.2400 ha         1 2WH       0.130000
     51 H20         19.4700     1.9920    11.0450 h4         1 2WH      -0.005900
     52 H21         17.2480     3.2740     7.7770 h4         1 2WH      -0.009900
     53 H22         19.0400     1.3420    12.9920 h1         1 2WH      -0.000300
     54 H23         19.8550     0.1500    11.9700 h1         1 2WH      -0.000300
     55 H24         19.0160    -0.3700    13.4390 h1         1 2WH      -0.000300
@<TRIPOS>BOND
     1     1     2 1   
     2     1    32 1   
     3     1    33 1   
     4     1    34 1   
     5     2     3 1   
     6     2    35 1   
     7     2    36 1   
     8     3     4 1   
     9     3    37 1   
    10     3    38 1   
    11     4     5 1   
    12     4     8 1   
    13     5     6 2   
    14     5    39 1   
    15     6     7 1   
    16     6     9 1   
    17     7     8 2   
    18     8    40 1   
    19     9    10 1   
    20     9    41 1   
    21     9    42 1   
    22    10    11 1   
    23    10    43 1   
    24    10    44 1   
    25    11    12 1   
    26    11    45 1   
    27    12    13 2   
    28    12    14 1   
    29    14    15 1   
    30    14    46 1   
    31    15    16 2   
    32    15    23 1   
    33    16    17 1   
    34    17    18 ar  
    35    17    22 ar  
    36    18    19 ar  
    37    18    47 1   
    38    19    20 ar  
    39    19    48 1   
    40    20    21 ar  
    41    20    24 1   
    42    21    22 ar  
    43    21    49 1   
    44    22    23 1   
    45    24    25 ar  
    46    24    29 ar  
    47    25    26 ar  
    48    25    50 1   
    49    26    27 ar  
    50    26    30 1   
    51    27    28 ar  
    52    27    51 1   
    53    28    29 ar  
    54    29    52 1   
    55    30    31 1   
    56    31    53 1   
    57    31    54 1   
    58    31    55 1   
@<TRIPOS>SUBSTRUCTURE
     1 2WH         1 TEMP              0 ****  ****    0 ROOT
