@<TRIPOS>MOLECULE
molecule
   55    58     1     0     0
SMALL
bcc


@<TRIPOS>ATOM
      1 C1           0.0000     0.0000     0.0000 c3         1 2WH      -0.093100
      2 C2           1.5300     0.0000     0.0000 c3         1 2WH      -0.105400
      3 C3           2.0410     0.0000     1.4430 c3         1 2WH       0.040300
      4 N4           3.5050     0.0010     1.4420 na         1 2WH      -0.185900
      5 C5           4.3170     1.1030     1.4430 cc         1 2WH      -0.265600
      6 C6           5.5870     0.6510     1.4420 cd         1 2WH       0.311600
      7 N7           5.5500    -0.6900     1.4420 nd         1 2WH      -0.693000
      8 C8           4.3070    -1.0860     1.4480 cc         1 2WH       0.401400
      9 C9           6.8290     1.5040     1.4420 c3         1 2WH      -0.105700
     10 C10          7.7180     1.1100     2.6240 c3         1 2WH       0.133000
     11 N11          8.9260     1.9380     2.6240 ns         1 2WH      -0.603900
     12 C12          9.8600     1.7670     3.5790 c          1 2WH       0.769100
     13 O13          9.7010     0.9250     4.4420 o          1 2WH      -0.578100
     14 N14         10.9720     2.5300     3.5790 ns         1 2WH      -0.470400
     15 C15         11.9330     2.3530     4.5620 cc         1 2WH       0.514800
     16 N16         11.8590     1.4920     5.5160 nd         1 2WH      -0.578100
     17 C17         12.8750     1.4380     6.3990 ca         1 2WH       0.159400
     18 C18         13.0270     0.5900     7.5190 ca         1 2WH      -0.077000
     19 C19         14.1300     0.6740     8.3090 ca         1 2WH      -0.112000
     20 C20         15.1370     1.6030     8.0300 cp         1 2WH      -0.040000
     21 C21         15.0100     2.4470     6.9340 ca         1 2WH      -0.069000
     22 C22         13.8840     2.3660     6.1210 ca         1 2WH      -0.057100
     23 S23         13.4280     3.2700     4.6790 ss         1 2WH      -0.171100
     24 C24         16.3350     1.6870     8.8990 cp         1 2WH      -0.116300
     25 C25         16.4730     0.8380    10.0000 ca         1 2WH      -0.122000
     26 C26         17.6170     0.9520    10.7790 ca         1 2WH       0.021800
     27 C27         18.5760     1.8980    10.4410 ca         1 2WH       0.329200
     28 N28         18.4120     2.6840     9.3940 nb         1 2WH      -0.654000
     29 C29         17.3440     2.6100     8.6280 ca         1 2WH       0.384200
     30 O30         17.7970     0.1490    11.8600 os         1 2WH      -0.324900
     31 C31         19.0000     0.3280    12.6100 c3         1 2WH       0.126700
     32 H1          -0.3610     0.8840     0.5120 hc         1 2WH       0.039033
     33 H2          -0.3610     0.0020    -1.0210 hc         1 2WH       0.039033
     34 H3          -0.3610    -0.8850     0.5090 hc         1 2WH       0.039033
     35 H4           1.8910    -0.8840    -0.5110 hc         1 2WH       0.054700
     36 H5           1.8910     0.8840    -0.5110 hc         1 2WH       0.054700
     37 H6           1.6800    -0.8850     1.9530 h1         1 2WH       0.063700
     38 H7           1.6790     0.8840     1.9540 h1         1 2WH       0.063700
     39 H8           4.0000     2.1390     1.4430 h4         1 2WH       0.173000
     40 H9           3.9740    -2.1170     1.4500 h5         1 2WH       0.066100
     41 H10          6.5510     2.5470     1.5320 hc         1 2WH       0.049700
     42 H11          7.3710     1.3530     0.5170 hc         1 2WH       0.049700
     43 H12          7.1770     1.2620     3.5500 h1         1 2WH       0.067700
     44 H13          7.9960     0.0670     2.5350 h1         1 2WH       0.067700
     45 H14          9.0570     2.6310     1.9140 hn         1 2WH       0.301500
     46 H15         11.0920     3.2400     2.8850 hn         1 2WH       0.329500
     47 H16         12.2560    -0.1350     7.7500 ha         1 2WH       0.155000
     48 H17         14.2290     0.0160     9.1640 ha         1 2WH       0.140000
     49 H18         15.7870     3.1690     6.7120 ha         1 2WH       0.139000
     50 H19         15.7080     0.1090    10.2400 ha         1 2WH       0.154000
     51 H20         19.4700     1.9920    11.0450 h4         1 2WH       0.026100
     52 H21         17.2480     3.2740     7.7770 h4         1 2WH       0.027100
     53 H22         19.0400     1.3420    12.9920 h1         1 2WH       0.044033
     54 H23         19.8550     0.1500    11.9700 h1         1 2WH       0.044033
     55 H24         19.0160    -0.3700    13.4390 h1         1 2WH       0.044033
@<TRIPOS>BOND
     1    31    30 1
     2    30    26 1
     3    26    27 ar
     4    26    25 ar
     5    27    28 ar
     6    25    24 ar
     7     3     2 1
     8     3     4 1
     9     2     1 1
    10    28    29 ar
    11    24    29 ar
    12    24    20 1
    13     4     5 1
    14     4     8 1
    15     5     6 2
    16    21    20 ar
    17    21    22 ar
    18    20    19 ar
    19    23    22 1
    20    23    15 1
    21    13    12 2
    22    22    17 ar
    23     8     7 2
    24     6     9 1
    25     6     7 1
    26    19    18 ar
    27    10     9 1
    28    10    11 1
    29    12    11 1
    30    12    14 1
    31    17    18 ar
    32    17    16 1
    33    15    14 1
    34    15    16 2
    35     1    32 1
    36     1    33 1
    37     1    34 1
    38     2    35 1
    39     2    36 1
    40     3    37 1
    41     3    38 1
    42     5    39 1
    43     8    40 1
    44     9    41 1
    45     9    42 1
    46    10    43 1
    47    10    44 1
    48    11    45 1
    49    14    46 1
    50    18    47 1
    51    19    48 1
    52    21    49 1
    53    25    50 1
    54    27    51 1
    55    29    52 1
    56    31    53 1
    57    31    54 1
    58    31    55 1
@<TRIPOS>SUBSTRUCTURE
     1 2WH         1 TEMP              0 ****  ****    0 ROOT
