@<TRIPOS>MOLECULE
2WJ
   30    32     1     0     0
SMALL
bcc


@<TRIPOS>ATOM
      1 C1           0.0000     0.0000     0.0000 c3         1 2WJ      -0.065100
      2 C2           1.5080     0.0000     0.0000 c          1 2WJ       0.537100
      3 O3           2.1140     0.0000     1.0500 o          1 2WJ      -0.563100
      4 N4           2.1810    -0.0010    -1.1680 ns         1 2WJ      -0.006400
      5 C5           3.5670    -0.0020    -1.1680 cc         1 2WJ       0.307800
      6 N6           4.3020    -0.0020    -0.1100 nd         1 2WJ      -0.440100
      7 C7           5.6390    -0.0030    -0.2710 ca         1 2WJ       0.097400
      8 C8           6.6460    -0.0030     0.7180 ca         1 2WJ      -0.043000
      9 C9           7.9610    -0.0050     0.3720 ca         1 2WJ      -0.095000
     10 C10          8.3420    -0.0050    -0.9720 cp         1 2WJ      -0.026000
     11 C11          7.3700    -0.0050    -1.9640 ca         1 2WJ      -0.043000
     12 C12          6.0240    -0.0040    -1.6170 ca         1 2WJ      -0.018100
     13 S13          4.5690    -0.0100    -2.6120 ss         1 2WJ      -0.239100
     14 C14          9.7800    -0.0060    -1.3390 cp         1 2WJ      -0.149300
     15 C15         10.7650    -0.0120    -0.3480 ca         1 2WJ      -0.067000
     16 C16         12.0920    -0.0120    -0.7410 ca         1 2WJ      -0.216300
     17 C17         12.3980    -0.0070    -2.0900 ca         1 2WJ       0.403200
     18 N18         11.4460    -0.0010    -3.0030 nb         1 2WJ      -0.578000
     19 C19         10.1690    -0.0060    -2.6770 ca         1 2WJ       0.404200
     20 H1          -0.3610     0.0010     1.0210 hc         1 2WJ       0.025033
     21 H2          -0.3610    -0.8850    -0.5090 hc         1 2WJ       0.025033
     22 H3          -0.3610     0.8840    -0.5120 hc         1 2WJ       0.025033
     23 H4           1.6800    -0.0000    -2.0340 hn         1 2WJ       0.174500
     24 H5           6.3680    -0.0030     1.7650 ha         1 2WJ       0.120000
     25 H6           8.7190    -0.0050     1.1450 ha         1 2WJ       0.114000
     26 H7           7.6610    -0.0040    -3.0080 ha         1 2WJ       0.120000
     27 H8          10.4970    -0.0160     0.7020 ha         1 2WJ       0.117000
     28 H9          12.8820    -0.0170    -0.0000 ha         1 2WJ       0.113000
     29 H10         13.4350    -0.0050    -2.4020 h4         1 2WJ      -0.019900
     30 H11          9.4160    -0.0000    -3.4550 h4         1 2WJ      -0.012900
@<TRIPOS>BOND
     1     1     2 1   
     2     1    20 1   
     3     1    21 1   
     4     1    22 1   
     5     2     3 2   
     6     2     4 1   
     7     4     5 1   
     8     4    23 1   
     9     5     6 2   
    10     5    13 1   
    11     6     7 1   
    12     7     8 ar  
    13     7    12 ar  
    14     8     9 ar  
    15     8    24 1   
    16     9    10 ar  
    17     9    25 1   
    18    10    11 ar  
    19    10    14 1   
    20    11    12 ar  
    21    11    26 1   
    22    12    13 1   
    23    14    15 ar  
    24    14    19 ar  
    25    15    16 ar  
    26    15    27 1   
    27    16    17 ar  
    28    16    28 1   
    29    17    18 ar  
    30    17    29 1   
    31    18    19 ar  
    32    19    30 1   
@<TRIPOS>SUBSTRUCTURE
     1 2WJ         1 TEMP              0 ****  ****    0 ROOT
