@<TRIPOS>MOLECULE
molecule
   30    32     1     0     0
SMALL
bcc


@<TRIPOS>ATOM
      1 C1           0.0000     0.0000     0.0000 c3         1 2WJ      -0.169100
      2 C2           1.5080     0.0000     0.0000 c          1 2WJ       0.644100
      3 O3           2.1140     0.0000     1.0500 o          1 2WJ      -0.522100
      4 N4           2.1810    -0.0010    -1.1680 ns         1 2WJ      -0.462400
      5 C5           3.5670    -0.0020    -1.1680 cc         1 2WJ       0.492800
      6 N6           4.3020    -0.0020    -0.1100 nd         1 2WJ      -0.581100
      7 C7           5.6390    -0.0030    -0.2710 ca         1 2WJ       0.152400
      8 C8           6.6460    -0.0030     0.7180 ca         1 2WJ      -0.075000
      9 C9           7.9610    -0.0050     0.3720 ca         1 2WJ      -0.115000
     10 C10          8.3420    -0.0050    -0.9720 cp         1 2WJ      -0.033000
     11 C11          7.3700    -0.0050    -1.9640 ca         1 2WJ      -0.074000
     12 C12          6.0240    -0.0040    -1.6170 ca         1 2WJ      -0.052100
     13 S13          4.5690    -0.0100    -2.6120 ss         1 2WJ      -0.164100
     14 C14          9.7800    -0.0060    -1.3390 cp         1 2WJ      -0.156300
     15 C15         10.7650    -0.0120    -0.3480 ca         1 2WJ      -0.086000
     16 C16         12.0920    -0.0120    -0.7410 ca         1 2WJ      -0.250300
     17 C17         12.3980    -0.0070    -2.0900 ca         1 2WJ       0.419200
     18 N18         11.4460    -0.0010    -3.0030 nb         1 2WJ      -0.687000
     19 C19         10.1690    -0.0060    -2.6770 ca         1 2WJ       0.426200
     20 H1          -0.3610     0.0010     1.0210 hc         1 2WJ       0.065367
     21 H2          -0.3610    -0.8850    -0.5090 hc         1 2WJ       0.065367
     22 H3          -0.3610     0.8840    -0.5120 hc         1 2WJ       0.065367
     23 H4           1.6800    -0.0000    -2.0340 hn         1 2WJ       0.337500
     24 H5           6.3680    -0.0030     1.7650 ha         1 2WJ       0.153000
     25 H6           8.7190    -0.0050     1.1450 ha         1 2WJ       0.138000
     26 H7           7.6610    -0.0040    -3.0080 ha         1 2WJ       0.139000
     27 H8          10.4970    -0.0160     0.7020 ha         1 2WJ       0.141000
     28 H9          12.8820    -0.0170    -0.0000 ha         1 2WJ       0.140000
     29 H10         13.4350    -0.0050    -2.4020 h4         1 2WJ       0.024100
     30 H11          9.4160    -0.0000    -3.4550 h4         1 2WJ       0.026100
@<TRIPOS>BOND
     1    16    15 ar
     2    16    17 ar
     3    15    14 ar
     4    17    18 ar
     5    14    10 1
     6    14    19 ar
     7    18    19 ar
     8    11    12 ar
     9    11    10 ar
    10    13    12 1
    11    13     5 1
    12     3     2 2
    13    12     7 ar
    14    10     9 ar
    15     2     1 1
    16     2     4 1
    17     5     4 1
    18     5     6 2
    19     7     6 1
    20     7     8 ar
    21     9     8 ar
    22     1    20 1
    23     1    21 1
    24     1    22 1
    25     4    23 1
    26     8    24 1
    27     9    25 1
    28    11    26 1
    29    15    27 1
    30    16    28 1
    31    17    29 1
    32    19    30 1
@<TRIPOS>SUBSTRUCTURE
     1 2WJ         1 TEMP              0 ****  ****    0 ROOT
