@<TRIPOS>MOLECULE
molecule
   38    40     1     0     0
SMALL
bcc


@<TRIPOS>ATOM
      1 C1           0.0000     0.0000     0.0000 c3         1 2WK      -0.169100
      2 C2           1.5070     0.0000     0.0000 c          1 2WK       0.644100
      3 O3           2.1130     0.0000     1.0510 o          1 2WK      -0.523100
      4 N4           2.1810     0.0000    -1.1670 ns         1 2WK      -0.462400
      5 C5           3.5660     0.0010    -1.1680 cc         1 2WK       0.490800
      6 N6           4.3010     0.0000    -0.1090 nd         1 2WK      -0.580100
      7 C7           5.6390     0.0000    -0.2710 ca         1 2WK       0.149400
      8 C8           6.6460     0.0000     0.7200 ca         1 2WK      -0.073000
      9 C9           7.9610     0.0010     0.3730 ca         1 2WK      -0.118000
     10 C10          8.3420     0.0010    -0.9720 cp         1 2WK      -0.024000
     11 C11          7.3710     0.0010    -1.9640 ca         1 2WK      -0.078000
     12 C12          6.0230     0.0010    -1.6160 ca         1 2WK      -0.050100
     13 S13          4.5690    -0.0060    -2.6110 ss         1 2WK      -0.164100
     14 C14          9.7800     0.0030    -1.3370 cp         1 2WK      -0.160300
     15 C15         10.7650    -0.0030    -0.3430 ca         1 2WK      -0.156000
     16 C16         12.0940    -0.0070    -0.7350 ca         1 2WK       0.011800
     17 C17         12.4010    -0.0050    -2.0950 ca         1 2WK       0.640600
     18 N18         11.4440     0.0000    -3.0060 nb         1 2WK      -0.739000
     19 C19         10.1680     0.0040    -2.6740 ca         1 2WK       0.429200
     20 O20         13.7000    -0.0100    -2.4880 os         1 2WK      -0.426100
     21 C21         13.9530    -0.0080    -3.8950 c3         1 2WK       0.136700
     22 O22         13.0860    -0.0120     0.1960 os         1 2WK      -0.307900
     23 C23         12.6880    -0.0120     1.5690 c3         1 2WK       0.125700
     24 H1          -0.3610     0.8840    -0.5110 hc         1 2WK       0.065033
     25 H2          -0.3610    -0.8850    -0.5100 hc         1 2WK       0.065033
     26 H3          -0.3610     0.0010     1.0210 hc         1 2WK       0.065033
     27 H4           1.6810    -0.0000    -2.0340 hn         1 2WK       0.336500
     28 H5           6.3680    -0.0000     1.7670 ha         1 2WK       0.153000
     29 H6           8.7200     0.0000     1.1470 ha         1 2WK       0.135000
     30 H7           7.6620     0.0020    -3.0070 ha         1 2WK       0.139000
     31 H8          10.4960    -0.0040     0.7060 ha         1 2WK       0.151000
     32 H9           9.4130     0.0080    -3.4510 h4         1 2WK       0.028100
     33 H10         15.0220    -0.0120    -4.0700 h1         1 2WK       0.045700
     34 H11         13.5110    -0.8900    -4.3430 h1         1 2WK       0.045700
     35 H12         13.5180     0.8790    -4.3390 h1         1 2WK       0.045700
     36 H13         12.0940    -0.8950     1.7720 h1         1 2WK       0.042033
     37 H14         13.5680    -0.0160     2.2000 h1         1 2WK       0.042033
     38 H15         12.1000     0.8740     1.7750 h1         1 2WK       0.042033
@<TRIPOS>BOND
     1    23    22 1
     2    22    16 1
     3    16    15 ar
     4    16    17 ar
     5    20    21 1
     6    20    17 1
     7    15    14 ar
     8    17    18 ar
     9    18    19 ar
    10    14    19 ar
    11    14    10 1
    12    11    10 ar
    13    11    12 ar
    14    13    12 1
    15    13     5 1
    16     3     2 2
    17    10     9 ar
    18    12     7 ar
    19     2     1 1
    20     2     4 1
    21     5     4 1
    22     5     6 2
    23     9     8 ar
    24     7     8 ar
    25     7     6 1
    26     1    24 1
    27     1    25 1
    28     1    26 1
    29     4    27 1
    30     8    28 1
    31     9    29 1
    32    11    30 1
    33    15    31 1
    34    19    32 1
    35    21    33 1
    36    21    34 1
    37    21    35 1
    38    23    36 1
    39    23    37 1
    40    23    38 1
@<TRIPOS>SUBSTRUCTURE
     1 2WK         1 TEMP              0 ****  ****    0 ROOT
