@<TRIPOS>MOLECULE
2WL
   48    51     1     0     0
SMALL
bcc


@<TRIPOS>ATOM
      1 Cl1          0.0000     0.0000     0.0000 cl         1 2WL      -0.005400
      2 C2           1.7360     0.0000     0.0000 ca         1 2WL      -0.015600
      3 C3           2.4280     0.0000     1.1960 ca         1 2WL      -0.100000
      4 C4           3.8110     0.0000     1.1970 ca         1 2WL      -0.093000
      5 C5           4.5060     0.0010     0.0010 ca         1 2WL      -0.094000
      6 C6           3.8210     0.0000    -1.1990 ca         1 2WL      -0.125000
      7 C1           2.4330    -0.0060    -1.2040 ca         1 2WL       0.012600
      8 N1           1.7360    -0.0120    -2.4150 nh         1 2WL      -0.399000
      9 C10          1.9900    -1.2510    -3.1620 c3         1 2WL       0.135300
     10 C9           1.0750    -1.3000    -4.3890 c3         1 2WL       0.015500
     11 C7           2.0680     1.1720    -3.2190 c3         1 2WL       0.135300
     12 C8           1.1560     1.2220    -4.4490 c3         1 2WL       0.015500
     13 N4           1.2590    -0.0610    -5.1600 n          1 2WL      -0.130800
     14 C21          1.5170    -0.1010    -6.4830 c          1 2WL       0.543600
     15 O1           1.7180    -1.1670    -7.0320 o          1 2WL      -0.672100
     16 C11          1.5520     1.1480    -7.2640 cc         1 2WL       0.220800
     17 C20          1.9310     1.2730    -8.5680 cd         1 2WL      -0.341600
     18 N2           1.2090     2.3830    -6.8180 nc         1 2WL      -0.594000
     19 C12          1.3680     3.2390    -7.7850 cd         1 2WL       0.217400
     20 N3           1.8150     2.5830    -8.8880 na         1 2WL       0.297100
     21 C13          2.1150     3.1840   -10.1890 c3         1 2WL       0.020600
     22 C14          0.8760     3.1720   -11.0470 ca         1 2WL      -0.142300
     23 C15          0.6100     2.0880   -11.8620 ca         1 2WL      -0.077500
     24 C19          0.0020     4.2420   -11.0130 ca         1 2WL      -0.077500
     25 C18         -1.1350     4.2310   -11.7990 ca         1 2WL      -0.096000
     26 C17         -1.3990     3.1490   -12.6190 ca         1 2WL      -0.083000
     27 C16         -0.5270     2.0770   -12.6480 ca         1 2WL      -0.096000
     28 H1           1.8870    -0.0010     2.1340 ha         1 2WL       0.114000
     29 H2           4.3520     0.0000     2.1360 ha         1 2WL       0.105000
     30 H3           5.5890     0.0040     0.0050 ha         1 2WL       0.104000
     31 H4           4.3670    -0.0010    -2.1350 ha         1 2WL       0.115000
     32 H5           3.0240    -1.2730    -3.4830 h1         1 2WL       0.017950
     33 H6           1.7850    -2.1040    -2.5260 h1         1 2WL       0.017950
     34 H7           1.3370    -2.1530    -5.0040 h1         1 2WL       0.052450
     35 H8           0.0430    -1.3780    -4.0700 h1         1 2WL       0.052450
     36 H9           1.9190     2.0650    -2.6240 h1         1 2WL       0.017950
     37 H10          3.1010     1.1120    -3.5390 h1         1 2WL       0.017950
     38 H11          0.1320     1.3830    -4.1360 h1         1 2WL       0.052450
     39 H12          1.4730     2.0260    -5.1030 h1         1 2WL       0.052450
     40 H13          2.2630     0.4760    -9.2230 h4         1 2WL       0.169000
     41 H14          1.1730     4.3030    -7.7230 h5         1 2WL       0.025100
     42 H15          2.8980     2.6160   -10.6780 h1         1 2WL       0.040200
     43 H16          2.4460     4.2060   -10.0470 h1         1 2WL       0.040200
     44 H17          1.2930     1.2480   -11.8850 ha         1 2WL       0.106000
     45 H18          0.2070     5.0900   -10.3700 ha         1 2WL       0.106000
     46 H19         -1.8190     5.0700   -11.7740 ha         1 2WL       0.107500
     47 H20         -2.2890     3.1410   -13.2350 ha         1 2WL       0.106000
     48 H21         -0.7330     1.2280   -13.2890 ha         1 2WL       0.107500
@<TRIPOS>BOND
     1     1     2 1   
     2     2     3 ar  
     3     2     7 ar  
     4     3     4 ar  
     5     3    28 1   
     6     4     5 ar  
     7     4    29 1   
     8     5     6 ar  
     9     5    30 1   
    10     6     7 ar  
    11     6    31 1   
    12     7     8 1   
    13     8     9 1   
    14     8    11 1   
    15     9    10 1   
    16     9    32 1   
    17     9    33 1   
    18    10    13 1   
    19    10    34 1   
    20    10    35 1   
    21    11    12 1   
    22    11    36 1   
    23    11    37 1   
    24    12    13 1   
    25    12    38 1   
    26    12    39 1   
    27    13    14 1   
    28    14    15 2   
    29    14    16 1   
    30    16    17 2   
    31    16    18 1   
    32    17    20 1   
    33    17    40 1   
    34    18    19 2   
    35    19    20 1   
    36    19    41 1   
    37    20    21 1   
    38    21    22 1   
    39    21    42 1   
    40    21    43 1   
    41    22    23 ar  
    42    22    24 ar  
    43    23    27 ar  
    44    23    44 1   
    45    24    25 ar  
    46    24    45 1   
    47    25    26 ar  
    48    25    46 1   
    49    26    27 ar  
    50    26    47 1   
    51    27    48 1   
@<TRIPOS>SUBSTRUCTURE
     1 2WL         1 TEMP              0 ****  ****    0 ROOT
