@<TRIPOS>MOLECULE
molecule
  122   121     1     0     0
SMALL
bcc


@<TRIPOS>ATOM
      1 CBF          0.0000     0.0000     0.0000 c3         1 2WM      -0.092100
      2 CBE          1.5300     0.0000     0.0000 c3         1 2WM      -0.084400
      3 CBD          2.0400     0.0000     1.4430 c3         1 2WM      -0.081400
      4 CBC          3.5700     0.0010     1.4420 c3         1 2WM      -0.082400
      5 CBB          4.0800     0.0010     2.8850 c3         1 2WM      -0.082400
      6 CBA          5.6100     0.0010     2.8850 c3         1 2WM      -0.082400
      7 CAZ          6.1200     0.0010     4.3280 c3         1 2WM      -0.082400
      8 CAY          7.6500     0.0020     4.3280 c3         1 2WM      -0.081400
      9 CAX          8.1600     0.0020     5.7700 c3         1 2WM      -0.082400
     10 CAW          9.6890     0.0020     5.7710 c3         1 2WM      -0.082400
     11 CAV         10.2000     0.0020     7.2130 c3         1 2WM      -0.082400
     12 CAU         11.7300     0.0020     7.2130 c3         1 2WM      -0.081400
     13 CAT         12.2390     0.0020     8.6550 c3         1 2WM      -0.081400
     14 CAS         13.7700     0.0030     8.6550 c3         1 2WM      -0.082400
     15 CAR         14.2790     0.0030    10.0990 c3         1 2WM      -0.078400
     16 CAQ         15.8090     0.0030    10.0980 c3         1 2WM      -0.084400
     17 CAP         16.3190     0.0030    11.5410 c3         1 2WM      -0.082400
     18 CAO         17.8490     0.0040    11.5410 c3         1 2WM       0.337900
     19 OAD         18.3250     1.2250    10.9720 oh         1 2WM      -0.624800
     20 OAN         18.3260    -0.1140    12.8830 os         1 2WM      -0.383600
     21 CAM         19.7460    -0.2370    12.9870 c3         1 2WM       0.155100
     22 CAL         20.3700     1.1540    13.1080 c3         1 2WM       0.119400
     23 OAK         19.9530     1.7590    14.3340 oh         1 2WM      -0.568800
     24 CBI         20.0960    -1.0630    14.2260 c3         1 2WM       0.143400
     25 OBJ         19.6910    -0.3560    15.4010 os         1 2WM      -0.375600
     26 CBK         19.9740    -1.0440    16.6200 c3         1 2WM       0.335900
     27 OCC         19.2030    -2.2450    16.6790 oh         1 2WM      -0.620800
     28 CBL         19.6150    -0.1480    17.8070 c3         1 2WM      -0.073400
     29 CBM         20.0340    -0.8340    19.1090 c3         1 2WM      -0.084400
     30 CBN         19.6740     0.0620    20.2960 c3         1 2WM      -0.078400
     31 CBO         20.0920    -0.6240    21.5980 c3         1 2WM      -0.083400
     32 CBP         19.7320     0.2720    22.7850 c3         1 2WM      -0.077400
     33 CBQ         20.1510    -0.4140    24.0870 c3         1 2WM      -0.048200
     34 CBR         19.7970     0.4690    25.2560 c2         1 2WM      -0.176200
     35 CBS         19.0510     0.0020    26.2270 c2         1 2WM      -0.176200
     36 CBT         18.6980     0.8850    27.3960 c3         1 2WM      -0.047200
     37 CBU         17.1780     0.9270    27.5610 c3         1 2WM      -0.078400
     38 CBV         16.8180     1.8230    28.7480 c3         1 2WM      -0.083400
     39 CBW         15.2970     1.8660    28.9120 c3         1 2WM      -0.081400
     40 CBX         14.9380     2.7620    30.0990 c3         1 2WM      -0.082400
     41 CBY         13.4170     2.8060    30.2630 c3         1 2WM      -0.082400
     42 CBZ         13.0580     3.7020    31.4500 c3         1 2WM      -0.081400
     43 CCA         11.5370     3.7450    31.6140 c3         1 2WM      -0.084400
     44 CCB         11.1770     4.6410    32.8010 c3         1 2WM      -0.092100
     45 H1          -0.3610    -0.0040    -1.0210 hc         1 2WM       0.032367
     46 H2          -0.3610     0.8870     0.5070 hc         1 2WM       0.032367
     47 H3          -0.3610    -0.8820     0.5140 hc         1 2WM       0.032367
     48 H4           1.8910    -0.8850    -0.5110 hc         1 2WM       0.039700
     49 H5           1.8910     0.8850    -0.5110 hc         1 2WM       0.039700
     50 H6           1.6790    -0.8850     1.9530 hc         1 2WM       0.040700
     51 H7           1.6780     0.8840     1.9530 hc         1 2WM       0.040700
     52 H8           3.9310     0.8860     0.9320 hc         1 2WM       0.040700
     53 H9           3.9320    -0.8830     0.9310 hc         1 2WM       0.040700
     54 H10          3.7190     0.8850     3.3950 hc         1 2WM       0.040700
     55 H11          3.7190    -0.8840     3.3950 hc         1 2WM       0.040700
     56 H12          5.9710     0.8860     2.3740 hc         1 2WM       0.040700
     57 H13          5.9710    -0.8830     2.3740 hc         1 2WM       0.040700
     58 H14          5.7600    -0.8840     4.8380 hc         1 2WM       0.041200
     59 H15          5.7580     0.8850     4.8390 hc         1 2WM       0.041200
     60 H16          8.0120    -0.8820     3.8170 hc         1 2WM       0.040700
     61 H17          8.0100     0.8870     3.8180 hc         1 2WM       0.040700
     62 H18          7.7990    -0.8830     6.2810 hc         1 2WM       0.041200
     63 H19          7.7990     0.8860     6.2810 hc         1 2WM       0.041200
     64 H20         10.0510    -0.8820     5.2600 hc         1 2WM       0.040700
     65 H21         10.0500     0.8870     5.2600 hc         1 2WM       0.040700
     66 H22          9.8390    -0.8830     7.7240 hc         1 2WM       0.041700
     67 H23          9.8390     0.8860     7.7240 hc         1 2WM       0.041700
     68 H24         12.0910     0.8860     6.7020 hc         1 2WM       0.040700
     69 H25         12.0910    -0.8830     6.7020 hc         1 2WM       0.040700
     70 H26         11.8790    -0.8830     9.1660 hc         1 2WM       0.042200
     71 H27         11.8770     0.8860     9.1660 hc         1 2WM       0.042200
     72 H28         14.1300     0.8880     8.1450 hc         1 2WM       0.040700
     73 H29         14.1310    -0.8810     8.1450 hc         1 2WM       0.040700
     74 H30         13.9180     0.8870    10.6090 hc         1 2WM       0.045200
     75 H31         13.9180    -0.8820    10.6100 hc         1 2WM       0.045200
     76 H32         16.1700     0.8870     9.5870 hc         1 2WM       0.040700
     77 H33         16.1700    -0.8820     9.5870 hc         1 2WM       0.040700
     78 H34         15.9570     0.8870    12.0520 hc         1 2WM       0.067200
     79 H35         15.9580    -0.8820    12.0520 hc         1 2WM       0.067200
     80 H36         18.2110    -0.8330    10.9550 h2         1 2WM       0.011700
     81 H37         18.7010     1.0520    10.1250 ho         1 2WM       0.402000
     82 H38         20.1310    -0.7300    12.1030 h1         1 2WM       0.037700
     83 H39         20.0490     1.7680    12.2750 h1         1 2WM       0.026200
     84 H40         21.4500     1.0680    13.0970 h1         1 2WM       0.026200
     85 H41         20.2540     2.6520    14.3620 ho         1 2WM       0.388000
     86 H42         19.5820    -2.0150    14.1830 h1         1 2WM       0.028700
     87 H43         21.1660    -1.2310    14.2580 h1         1 2WM       0.028700
     88 H44         21.0290    -1.2900    16.6590 h2         1 2WM       0.008700
     89 H45         19.7820    -2.9890    16.7120 ho         1 2WM       0.397000
     90 H46         18.5460     0.0260    17.8180 hc         1 2WM       0.066200
     91 H47         20.1340     0.7980    17.7150 hc         1 2WM       0.066200
     92 H48         21.1030    -1.0080    19.0980 hc         1 2WM       0.041700
     93 H49         19.5150    -1.7810    19.2010 hc         1 2WM       0.041700
     94 H50         20.1920     1.0080    20.2040 hc         1 2WM       0.044200
     95 H51         18.6040     0.2350    20.3070 hc         1 2WM       0.044200
     96 H52         19.5740    -1.5710    21.6900 hc         1 2WM       0.040200
     97 H53         21.1620    -0.7970    21.5870 hc         1 2WM       0.040200
     98 H54         20.2510     1.2190    22.6930 hc         1 2WM       0.044200
     99 H55         18.6630     0.4460    22.7960 hc         1 2WM       0.044200
    100 H56         19.6320    -1.3600    24.1790 hc         1 2WM       0.045200
    101 H57         21.2200    -0.5880    24.0760 hc         1 2WM       0.045200
    102 H58         20.1590     1.4890    25.2930 ha         1 2WM       0.124000
    103 H59         18.6890    -1.0180    26.1890 ha         1 2WM       0.124000
    104 H60         19.0700     1.8860    27.2180 hc         1 2WM       0.045700
    105 H61         19.1480     0.4870    28.2970 hc         1 2WM       0.045700
    106 H62         16.8050    -0.0740    27.7380 hc         1 2WM       0.043200
    107 H63         16.7280     1.3250    26.6590 hc         1 2WM       0.043200
    108 H64         17.1900     2.8250    28.5700 hc         1 2WM       0.040700
    109 H65         17.2670     1.4260    29.6500 hc         1 2WM       0.040700
    110 H66         14.8480     2.2640    28.0100 hc         1 2WM       0.041200
    111 H67         14.9250     0.8650    29.0890 hc         1 2WM       0.041200
    112 H68         15.3870     2.3640    31.0010 hc         1 2WM       0.040700
    113 H69         15.3110     3.7640    29.9220 hc         1 2WM       0.040700
    114 H70         12.9680     3.2040    29.3610 hc         1 2WM       0.041200
    115 H71         13.0440     1.8040    30.4400 hc         1 2WM       0.041200
    116 H72         13.5070     3.3040    32.3520 hc         1 2WM       0.040700
    117 H73         13.4300     4.7040    31.2720 hc         1 2WM       0.040700
    118 H74         11.1650     2.7430    31.7910 hc         1 2WM       0.039700
    119 H75         11.0880     4.1420    30.7120 hc         1 2WM       0.039700
    120 H76         11.5500     5.6420    32.6230 hc         1 2WM       0.032367
    121 H77         11.6270     4.2430    33.7030 hc         1 2WM       0.032367
    122 H78         10.1010     4.6710    32.9170 hc         1 2WM       0.032367
@<TRIPOS>BOND
     1    36    35 1   
     2    36    37 1   
     3    43    44 1   
     4    43    42 1   
     5    35    34 2   
     6    37    38 1   
     7    34    33 1   
     8    33    32 1   
     9    42    41 1   
    10    39    38 1   
    11    39    40 1   
    12    41    40 1   
    13    30    31 1   
    14    30    29 1   
    15    32    31 1   
    16    29    28 1   
    17    27    26 1   
    18    28    26 1   
    19    26    25 1   
    20    25    24 1   
    21    23    22 1   
    22    20    21 1   
    23    20    18 1   
    24    22    21 1   
    25    24    21 1   
    26    17    18 1   
    27    17    16 1   
    28    18    19 1   
    29    16    15 1   
    30     1     2 1   
    31    15    14 1   
    32     2     3 1   
    33    14    13 1   
    34    13    12 1   
    35     3     4 1   
    36     4     5 1   
    37    12    11 1   
    38     5     6 1   
    39    11    10 1   
    40     9    10 1   
    41     9     8 1   
    42     6     7 1   
    43     7     8 1   
    44     1    45 1   
    45     1    46 1   
    46     1    47 1   
    47     2    48 1   
    48     2    49 1   
    49     3    50 1   
    50     3    51 1   
    51     4    52 1   
    52     4    53 1   
    53     5    54 1   
    54     5    55 1   
    55     6    56 1   
    56     6    57 1   
    57     7    58 1   
    58     7    59 1   
    59     8    60 1   
    60     8    61 1   
    61     9    62 1   
    62     9    63 1   
    63    10    64 1   
    64    10    65 1   
    65    11    66 1   
    66    11    67 1   
    67    12    68 1   
    68    12    69 1   
    69    13    70 1   
    70    13    71 1   
    71    14    72 1   
    72    14    73 1   
    73    15    74 1   
    74    15    75 1   
    75    16    76 1   
    76    16    77 1   
    77    17    78 1   
    78    17    79 1   
    79    18    80 1   
    80    19    81 1   
    81    21    82 1   
    82    22    83 1   
    83    22    84 1   
    84    23    85 1   
    85    24    86 1   
    86    24    87 1   
    87    26    88 1   
    88    27    89 1   
    89    28    90 1   
    90    28    91 1   
    91    29    92 1   
    92    29    93 1   
    93    30    94 1   
    94    30    95 1   
    95    31    96 1   
    96    31    97 1   
    97    32    98 1   
    98    32    99 1   
    99    33   100 1   
   100    33   101 1   
   101    34   102 1   
   102    35   103 1   
   103    36   104 1   
   104    36   105 1   
   105    37   106 1   
   106    37   107 1   
   107    38   108 1   
   108    38   109 1   
   109    39   110 1   
   110    39   111 1   
   111    40   112 1   
   112    40   113 1   
   113    41   114 1   
   114    41   115 1   
   115    42   116 1   
   116    42   117 1   
   117    43   118 1   
   118    43   119 1   
   119    44   120 1   
   120    44   121 1   
   121    44   122 1   
@<TRIPOS>SUBSTRUCTURE
     1 2WM         1 TEMP              0 ****  ****    0 ROOT
