@<TRIPOS>MOLECULE
2WM
  122   121     1     0     0
SMALL
bcc


@<TRIPOS>ATOM
      1 CBF         0.6110    1.5700    3.0300 c3        1 2WM     -0.092100
      2 CBE         1.8940    0.7850    3.1230 c3        1 2WM     -0.080400
      3 CBD         2.8280    1.3660    4.1630 c3        1 2WM     -0.079400
      4 CBC         4.1150    0.5750    4.2520 c3        1 2WM     -0.079400
      5 CBB         5.0480    1.1570    5.2920 c3        1 2WM     -0.079400
      6 CBA         6.3350    0.3670    5.3790 c3        1 2WM     -0.079400
      7 CAZ         7.2690    0.9500    6.4180 c3        1 2WM     -0.079400
      8 CAY         8.5580    0.1610    6.5030 c3        1 2WM     -0.079400
      9 CAX         9.4930    0.7450    7.5410 c3        1 2WM     -0.079400
     10 CAW        10.7830   -0.0420    7.6230 c3        1 2WM     -0.079400
     11 CAV        11.7200    0.5430    8.6580 c3        1 2WM     -0.079400
     12 CAU        13.0110   -0.2430    8.7370 c3        1 2WM     -0.079400
     13 CAT        13.9500    0.3440    9.7680 c3        1 2WM     -0.079400
     14 CAS        15.2420   -0.4400    9.8430 c3        1 2WM     -0.079400
     15 CAR        16.1830    0.1490   10.8720 c3        1 2WM     -0.078400
     16 CAQ        17.4790   -0.6300   10.9360 c3        1 2WM     -0.080400
     17 CAP        18.4160   -0.0460   11.9690 c3        1 2WM     -0.102400
     18 CAO        19.7550   -0.7830   11.9480 c3        1 2WM      0.333900
     19 OAD        20.4810   -0.6150   10.7570 oh        1 2WM     -0.623800
     20 OAN        20.5620   -0.1870   12.9570 os        1 2WM     -0.462600
     21 CAM        21.7370   -0.9270   13.2880 c3        1 2WM      0.077100
     22 CAL        22.5720    0.0200   14.1600 c3        1 2WM      0.136400
     23 OAK        21.8300    0.5900   15.2160 oh        1 2WM     -0.602800
     24 CBI        21.4180   -2.2600   13.9750 c3        1 2WM      0.110400
     25 OBJ        20.0910   -2.3120   14.4730 os        1 2WM     -0.455600
     26 CBK        19.9530   -1.9250   15.8370 c3        1 2WM      0.316900
     27 OCC        20.4720   -3.0090   16.5680 oh        1 2WM     -0.620800
     28 CBL        18.4640   -1.6770   16.0750 c3        1 2WM     -0.102400
     29 CBM        18.2320   -1.1840   17.4850 c3        1 2WM     -0.080400
     30 CBN        16.7560   -1.0160   17.7700 c3        1 2WM     -0.078400
     31 CBO        16.5250   -0.5120   19.1780 c3        1 2WM     -0.080400
     32 CBP        15.0480   -0.3540   19.4710 c3        1 2WM     -0.075400
     33 CBQ        14.7980    0.1730   20.8690 c3        1 2WM     -0.048200
     34 CBR        15.1910    1.5920   21.0370 c2        1 2WM     -0.174200
     35 CBS        15.2020    2.2260   22.2140 c2        1 2WM     -0.174200
     36 CBT        14.8340    1.5850   23.4980 c3        1 2WM     -0.049200
     37 CBU        14.8190    2.5690   24.6490 c3        1 2WM     -0.077400
     38 CBV        14.4410    1.8880   25.9470 c3        1 2WM     -0.079400
     39 CBW        14.4290    2.8690   27.0990 c3        1 2WM     -0.079400
     40 CBX        14.0520    2.1880   28.3970 c3        1 2WM     -0.079400
     41 CBY        14.0420    3.1690   29.5500 c3        1 2WM     -0.079400
     42 CBZ        13.6660    2.4880   30.8480 c3        1 2WM     -0.079400
     43 CCA        13.6570    3.4680   32.0020 c3        1 2WM     -0.080400
     44 CCB        13.2830    2.7940   33.2970 c3        1 2WM     -0.092100
     45 H1         -0.0620    1.1250    2.2590 hc        1 2WM      0.032700
     46 H2          0.8170    2.6310    2.7490 hc        1 2WM      0.032700
     47 H3          0.0750    1.5660    4.0100 hc        1 2WM      0.032700
     48 H4          2.4050    0.7790    2.1240 hc        1 2WM      0.038700
     49 H5          1.6650   -0.2830    3.3820 hc        1 2WM      0.038700
     50 H6          2.3190    1.3710    5.1630 hc        1 2WM      0.039700
     51 H7          3.0590    2.4330    3.9050 hc        1 2WM      0.039700
     52 H8          3.8830   -0.4920    4.5100 hc        1 2WM      0.039700
     53 H9          4.6230    0.5700    3.2520 hc        1 2WM      0.039700
     54 H10         4.5400    1.1610    6.2930 hc        1 2WM      0.039700
     55 H11         5.2780    2.2250    5.0350 hc        1 2WM      0.039700
     56 H12         6.8430    0.3630    4.3780 hc        1 2WM      0.039700
     57 H13         6.1050   -0.7000    5.6370 hc        1 2WM      0.039700
     58 H14         7.4980    2.0180    6.1620 hc        1 2WM      0.039700
     59 H15         6.7630    0.9530    7.4200 hc        1 2WM      0.039700
     60 H16         9.0630    0.1580    5.5010 hc        1 2WM      0.039700
     61 H17         8.3290   -0.9060    6.7610 hc        1 2WM      0.039700
     62 H18         9.7200    1.8130    7.2840 hc        1 2WM      0.039700
     63 H19         8.9890    0.7470    8.5430 hc        1 2WM      0.039700
     64 H20        10.5560   -1.1100    7.8820 hc        1 2WM      0.039700
     65 H21        11.2860   -0.0460    6.6200 hc        1 2WM      0.039700
     66 H22        11.9450    1.6110    8.3990 hc        1 2WM      0.039700
     67 H23        11.2180    0.5450    9.6610 hc        1 2WM      0.039700
     68 H24        12.7850   -1.3110    8.9980 hc        1 2WM      0.039700
     69 H25        13.5110   -0.2470    7.7320 hc        1 2WM      0.039700
     70 H26        14.1720    1.4130    9.5090 hc        1 2WM      0.039700
     71 H27        13.4510    0.3450   10.7740 hc        1 2WM      0.039700
     72 H28        15.0200   -1.5080   10.1050 hc        1 2WM      0.041200
     73 H29        15.7390   -0.4430    8.8370 hc        1 2WM      0.041200
     74 H30        16.3990    1.2200   10.6140 hc        1 2WM      0.039700
     75 H31        15.6910    0.1450   11.8800 hc        1 2WM      0.039700
     76 H32        17.2630   -1.7020   11.1870 hc        1 2WM      0.048700
     77 H33        17.9820   -0.6200    9.9320 hc        1 2WM      0.048700
     78 H34        17.9790   -0.1400   12.9970 hc        1 2WM      0.057200
     79 H35        18.5870    1.0430   11.7700 hc        1 2WM      0.057200
     80 H36        19.6420   -1.8920   12.0920 h2        1 2WM      0.095700
     81 H37        20.5760    0.3320   10.5930 ho        1 2WM      0.410000
     82 H38        22.3090   -1.1460   12.3410 h1        1 2WM      0.061700
     83 H39        22.9970    0.8340   13.5130 h1        1 2WM      0.051200
     84 H40        23.4040   -0.5460   14.6570 h1        1 2WM      0.051200
     85 H41        21.0620    1.0260   14.8220 ho        1 2WM      0.417000
     86 H42        21.4530   -3.0910   13.2160 h1        1 2WM      0.059700
     87 H43        22.1600   -2.4670   14.7900 h1        1 2WM      0.059700
     88 H44        20.5940   -1.0380   16.1020 h2        1 2WM      0.108700
     89 H45        19.9430   -3.7890   16.3610 ho        1 2WM      0.408000
     90 H46        17.8950   -2.6260   15.8950 hc        1 2WM      0.054700
     91 H47        18.1070   -0.9210   15.3280 hc        1 2WM      0.054700
     92 H48        18.6810   -1.9140   18.2100 hc        1 2WM      0.050200
     93 H49        18.7590   -0.2040   17.6330 hc        1 2WM      0.050200
     94 H50        16.3090   -0.2960   17.0340 hc        1 2WM      0.038200
     95 H51        16.2310   -1.9980   17.6310 hc        1 2WM      0.038200
     96 H52        16.9790   -1.2280   19.9130 hc        1 2WM      0.043700
     97 H53        17.0410    0.4750   19.3160 hc        1 2WM      0.043700
     98 H54        14.5400   -1.3490   19.3610 hc        1 2WM      0.039700
     99 H55        14.5870    0.3390   18.7180 hc        1 2WM      0.039700
    100 H56        15.3530   -0.4620   21.6140 hc        1 2WM      0.047700
    101 H57        13.7030    0.0700   21.1080 hc        1 2WM      0.047700
    102 H58        15.4800    2.1240   20.1160 ha        1 2WM      0.122000
    103 H59        15.4980    3.2860   22.2720 ha        1 2WM      0.122000
    104 H60        13.8210    1.1040   23.4020 hc        1 2WM      0.047200
    105 H61        15.5620    0.7570   23.7220 hc        1 2WM      0.047200
    106 H62        15.8320    3.0420   24.7530 hc        1 2WM      0.041700
    107 H63        14.0900    3.3930   24.4300 hc        1 2WM      0.041700
    108 H64        13.4270    1.4170   25.8430 hc        1 2WM      0.039700
    109 H65        15.1680    1.0620   26.1640 hc        1 2WM      0.039700
    110 H66        15.4410    3.3410   27.2020 hc        1 2WM      0.039700
    111 H67        13.7000    3.6950   26.8820 hc        1 2WM      0.039700
    112 H68        14.7800    1.3620   28.6130 hc        1 2WM      0.039700
    113 H69        13.0390    1.7180   28.2950 hc        1 2WM      0.039700
    114 H70        13.3140    3.9950   29.3340 hc        1 2WM      0.039700
    115 H71        15.0550    3.6400   29.6520 hc        1 2WM      0.039700
    116 H72        14.3940    1.6610   31.0640 hc        1 2WM      0.039700
    117 H73        12.6530    2.0170   30.7470 hc        1 2WM      0.039700
    118 H74        14.6710    3.9380   32.1010 hc        1 2WM      0.038700
    119 H75        12.9300    4.2940   31.7840 hc        1 2WM      0.038700
    120 H76        14.0100    1.9830   33.5440 hc        1 2WM      0.032700
    121 H77        13.2820    3.5330   34.1340 hc        1 2WM      0.032700
    122 H78        12.2650    2.3400   33.2260 hc        1 2WM      0.032700
@<TRIPOS>BOND
     1    1    2 1   
     2    1   45 1   
     3    1   46 1   
     4    1   47 1   
     5    2    3 1   
     6    2   48 1   
     7    2   49 1   
     8    3    4 1   
     9    3   50 1   
    10    3   51 1   
    11    4    5 1   
    12    4   52 1   
    13    4   53 1   
    14    5    6 1   
    15    5   54 1   
    16    5   55 1   
    17    6    7 1   
    18    6   56 1   
    19    6   57 1   
    20    7    8 1   
    21    7   58 1   
    22    7   59 1   
    23    8    9 1   
    24    8   60 1   
    25    8   61 1   
    26    9   10 1   
    27    9   62 1   
    28    9   63 1   
    29   10   11 1   
    30   10   64 1   
    31   10   65 1   
    32   11   12 1   
    33   11   66 1   
    34   11   67 1   
    35   12   13 1   
    36   12   68 1   
    37   12   69 1   
    38   13   14 1   
    39   13   70 1   
    40   13   71 1   
    41   14   15 1   
    42   14   72 1   
    43   14   73 1   
    44   15   16 1   
    45   15   74 1   
    46   15   75 1   
    47   16   17 1   
    48   16   76 1   
    49   16   77 1   
    50   17   18 1   
    51   17   78 1   
    52   17   79 1   
    53   18   19 1   
    54   18   20 1   
    55   18   80 1   
    56   19   81 1   
    57   20   21 1   
    58   21   22 1   
    59   21   24 1   
    60   21   82 1   
    61   22   23 1   
    62   22   83 1   
    63   22   84 1   
    64   23   85 1   
    65   24   25 1   
    66   24   86 1   
    67   24   87 1   
    68   25   26 1   
    69   26   27 1   
    70   26   28 1   
    71   26   88 1   
    72   27   89 1   
    73   28   29 1   
    74   28   90 1   
    75   28   91 1   
    76   29   30 1   
    77   29   92 1   
    78   29   93 1   
    79   30   31 1   
    80   30   94 1   
    81   30   95 1   
    82   31   32 1   
    83   31   96 1   
    84   31   97 1   
    85   32   33 1   
    86   32   98 1   
    87   32   99 1   
    88   33   34 1   
    89   33  100 1   
    90   33  101 1   
    91   34   35 2   
    92   34  102 1   
    93   35   36 1   
    94   35  103 1   
    95   36   37 1   
    96   36  104 1   
    97   36  105 1   
    98   37   38 1   
    99   37  106 1   
   100   37  107 1   
   101   38   39 1   
   102   38  108 1   
   103   38  109 1   
   104   39   40 1   
   105   39  110 1   
   106   39  111 1   
   107   40   41 1   
   108   40  112 1   
   109   40  113 1   
   110   41   42 1   
   111   41  114 1   
   112   41  115 1   
   113   42   43 1   
   114   42  116 1   
   115   42  117 1   
   116   43   44 1   
   117   43  118 1   
   118   43  119 1   
   119   44  120 1   
   120   44  121 1   
   121   44  122 1   
@<TRIPOS>SUBSTRUCTURE
     1 2WM         1 TEMP              0 ****  ****    0 ROOT
