@<TRIPOS>MOLECULE
2WN
   32    34     1     0     0
SMALL
bcc


@<TRIPOS>ATOM
      1 O1          0.0320    0.1870   -0.4670 oh        1 2WN     -0.468100
      2 C2          1.3800    0.1530   -0.2410 ca        1 2WN      0.169100
      3 C3          1.9510    0.1660    1.0490 ca        1 2WN     -0.048600
      4 C4          3.3350    0.1290    1.2150 ca        1 2WN     -0.047500
      5 C5          4.1660    0.0780    0.0880 ca        1 2WN     -0.159500
      6 C6          3.6110    0.0640   -1.1990 ca        1 2WN     -0.047500
      7 C7          2.2280    0.1010   -1.3710 ca        1 2WN     -0.048600
      8 CL8         1.6010    0.0820   -2.9460 cl        1 2WN     -0.060900
      9 CL9         0.9580    0.2280    2.4290 cl        1 2WN     -0.060900
     10 C10         5.6010    0.0400    0.2630 cc        1 2WN      0.520900
     11 O11         6.4180   -0.0090   -0.8830 os        1 2WN     -0.389800
     12 C12         7.7240   -0.0360   -0.3560 cc        1 2WN      0.517900
     13 N13         7.6520   -0.0040    0.9950 nd        1 2WN     -0.339000
     14 N14         6.3880    0.0420    1.3640 nd        1 2WN     -0.340000
     15 C15         8.8400   -0.0890   -1.2750 ca        1 2WN     -0.146500
     16 C16        10.1490   -0.1180   -0.7700 ca        1 2WN     -0.065500
     17 C17        11.2310   -0.1710   -1.6430 ca        1 2WN     -0.157500
     18 C18        10.9920   -0.1960   -3.0260 ca        1 2WN      0.184100
     19 C19         9.6890   -0.1660   -3.5430 ca        1 2WN     -0.157500
     20 C20         8.6160   -0.1110   -2.6600 ca        1 2WN     -0.065500
     21 O21        12.0480   -0.1580   -3.8980 os        1 2WN     -0.521800
     22 S22        13.0530   -1.4200   -4.3140 s6        1 2WN      1.914200
     23 O23        12.3640   -2.5820   -4.1770 o         1 2WN     -0.658300
     24 O25        13.7000   -1.0060   -5.4340 o         1 2WN     -0.658300
     25 F26        13.9960   -1.2940   -3.1400 f         1 2WN     -0.284900
     26 H1         -0.4250    0.2200    0.3910 ho        1 2WN      0.440000
     27 H2          3.7700    0.1410    2.2290 ha        1 2WN      0.172500
     28 H3          4.2750    0.0240   -2.0790 ha        1 2WN      0.172500
     29 H4         10.3260   -0.0960    0.3180 ha        1 2WN      0.160500
     30 H5         12.2620   -0.1830   -1.2590 ha        1 2WN      0.156500
     31 H6          9.5250   -0.1730   -4.6310 ha        1 2WN      0.156500
     32 H7          7.5850   -0.0850   -3.0480 ha        1 2WN      0.160500
@<TRIPOS>BOND
     1    1    2 1
     2    1   26 1
     3    2    3 ar
     4    2    7 ar
     5    3    4 ar
     6    3    9 1
     7    4    5 ar
     8    4   27 1
     9    5    6 ar
    10    5   10 1
    11    6    7 ar
    12    6   28 1
    13    7    8 1
    14   10   11 1
    15   10   14 2
    16   11   12 1
    17   12   13 2
    18   12   15 1
    19   13   14 1
    20   15   16 ar
    21   15   20 ar
    22   16   17 ar
    23   16   29 1
    24   17   18 ar
    25   17   30 1
    26   18   19 ar
    27   18   21 1
    28   19   20 ar
    29   19   31 1
    30   20   32 1
    31   21   22 1
    32   22   23 2
    33   22   24 2
    34   22   25 1
@<TRIPOS>SUBSTRUCTURE
     1 2WN         1 TEMP              0 ****  ****    0 ROOT
