@<TRIPOS>MOLECULE
molecule
   34    34     1     0     0
SMALL
bcc


@<TRIPOS>ATOM
      1 C1           0.0000     0.0000     0.0000 c3         1 2WP       0.313900
      2 O1          -0.4850    -1.1920    -0.6220 oh         1 2WP      -0.581800
      3 C2           1.5410     0.0000     0.0000 c3         1 2WP       0.109100
      4 O2           2.0410    -1.1740    -0.6420 oh         1 2WP      -0.545800
      5 C3           1.9220     0.0000     1.5010 c3         1 2WP       0.103100
      6 O3           3.0240    -0.8750     1.7480 oh         1 2WP      -0.567800
      7 C4           0.6280    -0.5410     2.1630 c3         1 2WP       0.151100
      8 O4          -0.4270     0.0480     1.3720 os         1 2WP      -0.413600
      9 CE           0.5340    -0.0770     3.6180 c3         1 2WP       0.007700
     10 N           -0.7700    -0.6810     9.0010 nz         1 2WP      -0.800600
     11 CA          -1.9770    -0.1910     8.3240 c3         1 2WP      -0.018500
     12 CB          -2.0250    -0.7480     6.9000 c3         1 2WP      -0.072400
     13 CG          -0.8530    -0.1850     6.0930 c3         1 2WP      -0.024300
     14 SD          -0.9090    -0.8450     4.4040 ss         1 2WP      -0.278200
     15 C           -3.1980    -0.6470     9.0830 c          1 2WP       0.870600
     16 O           -4.3690    -0.0140     8.9110 o          1 2WP      -0.770300
     17 OXT         -3.1210    -1.5810     9.8450 o          1 2WP      -0.770300
     18 H1          -0.3660     0.8720    -0.5280 h2         1 2WP       0.061700
     19 H2          -1.3430    -1.0330    -0.9800 ho         1 2WP       0.408000
     20 H3           1.9170     0.8930    -0.4840 h1         1 2WP       0.044700
     21 H4           2.5690    -0.9270    -1.3840 ho         1 2WP       0.400000
     22 H5           2.1350     1.0060     1.8420 h1         1 2WP       0.045700
     23 H6           3.7760    -0.3680     2.0060 ho         1 2WP       0.399000
     24 H7           0.5920    -1.6220     2.0980 h1         1 2WP       0.100700
     25 H8           1.4320    -0.3690     4.1490 h1         1 2WP       0.063200
     26 H9           0.4300     1.0000     3.6470 h1         1 2WP       0.063200
     27 H13         -1.9580     0.8920     8.2890 hx         1 2WP       0.103700
     28 H14         -1.9550    -1.8290     6.9330 hc         1 2WP       0.099200
     29 H15         -2.9580    -0.4610     6.4310 hc         1 2WP       0.099200
     30 H16          0.0800    -0.4730     6.5620 h1         1 2WP       0.041200
     31 H17         -0.9230     0.8950     6.0610 h1         1 2WP       0.041200
     32 H11         -0.3610    -1.4180     8.4620 hn         1 2WP       0.440133
     33 H21         -0.1120     0.0680     9.0950 hn         1 2WP       0.440133
     34 H10         -1.0130    -1.0260     9.9090 hn         1 2WP       0.440133
@<TRIPOS>BOND
     1     2     1 1   
     2     8     1 1   
     3     8     7 1   
     4     1     3 1   
     5    10    11 1   
     6     7     9 1   
     7     7     5 1   
     8    11    15 1   
     9    11    12 1   
    10     3     4 1   
    11     3     5 1   
    12     9    14 1   
    13    13    12 1   
    14    13    14 1   
    15     5     6 1   
    16    15    16 1   
    17    15    17 1   
    18     1    18 1   
    19     2    19 1   
    20     3    20 1   
    21     4    21 1   
    22     5    22 1   
    23     6    23 1   
    24     7    24 1   
    25     9    25 1   
    26     9    26 1   
    27    10    34 1   
    28    10    32 1   
    29    11    27 1   
    30    12    28 1   
    31    12    29 1   
    32    13    30 1   
    33    13    31 1   
    34    33    10 1   
@<TRIPOS>SUBSTRUCTURE
     1 2WP         1 TEMP              0 ****  ****    0 ROOT
