@<TRIPOS>MOLECULE
2WP
   34    34     1     0     0
SMALL
bcc


@<TRIPOS>ATOM
      1 C1           0.0000     0.0000     0.0000 c3         1 2WP       0.376900
      2 O1          -0.4850    -1.1920    -0.6220 oh         1 2WP      -0.566800
      3 C2           1.5410     0.0000     0.0000 c3         1 2WP       0.136100
      4 O2           2.0410    -1.1740    -0.6420 oh         1 2WP      -0.526800
      5 C3           1.9220     0.0000     1.5010 c3         1 2WP       0.136100
      6 O3           3.0240    -0.8750     1.7480 oh         1 2WP      -0.546800
      7 C4           0.6280    -0.5410     2.1630 c3         1 2WP       0.190100
      8 O4          -0.4270     0.0480     1.3720 os         1 2WP      -0.405600
      9 CE           0.5340    -0.0770     3.6180 c3         1 2WP       0.079700
     10 N           -0.7700    -0.6810     9.0010 nz         1 2WP       0.052400
     11 CA          -1.9770    -0.1910     8.3240 c3         1 2WP      -0.202500
     12 CB          -2.0250    -0.7480     6.9000 c3         1 2WP       0.002600
     13 CG          -0.8530    -0.1850     6.0930 c3         1 2WP       0.047700
     14 SD          -0.9090    -0.8450     4.4040 ss         1 2WP      -0.347200
     15 C           -3.1980    -0.6470     9.0830 c          1 2WP       0.957600
     16 O           -4.3690    -0.0140     8.9110 o          1 2WP      -0.809300
     17 OXT         -3.1210    -1.5810     9.8450 o          1 2WP      -0.809300
     18 H1          -0.3660     0.8720    -0.5280 h2         1 2WP       0.010700
     19 H2          -1.3430    -1.0330    -0.9800 ho         1 2WP       0.393000
     20 H3           1.9170     0.8930    -0.4840 h1         1 2WP       0.006700
     21 H4           2.5690    -0.9270    -1.3840 ho         1 2WP       0.383000
     22 H5           2.1350     1.0060     1.8420 h1         1 2WP       0.011700
     23 H6           3.7760    -0.3680     2.0060 ho         1 2WP       0.382000
     24 H7           0.5920    -1.6220     2.0980 h1         1 2WP       0.065700
     25 H8           1.4320    -0.3690     4.1490 h1         1 2WP       0.037700
     26 H9           0.4300     1.0000     3.6470 h1         1 2WP       0.037700
     27 H13         -1.9580     0.8920     8.2890 hx         1 2WP       0.086700
     28 H14         -1.9550    -1.8290     6.9330 hc         1 2WP       0.067700
     29 H15         -2.9580    -0.4610     6.4310 hc         1 2WP       0.067700
     30 H16          0.0800    -0.4730     6.5620 h1         1 2WP       0.019200
     31 H17         -0.9230     0.8950     6.0610 h1         1 2WP       0.019200
     32 H11         -0.3610    -1.4180     8.4620 hn         1 2WP       0.215800
     33 H21         -0.1120     0.0680     9.0950 hn         1 2WP       0.215800
     34 H10         -1.0130    -1.0260     9.9090 hn         1 2WP       0.215800
@<TRIPOS>BOND
     1     1     2 1   
     2     1     3 1   
     3     1     8 1   
     4     1    18 1   
     5     2    19 1   
     6     3     4 1   
     7     3     5 1   
     8     3    20 1   
     9     4    21 1   
    10     5     6 1   
    11     5     7 1   
    12     5    22 1   
    13     6    23 1   
    14     7     8 1   
    15     7     9 1   
    16     7    24 1   
    17     9    14 1   
    18     9    25 1   
    19     9    26 1   
    20    10    11 1   
    21    10    32 1   
    22    10    33 1   
    23    10    34 1   
    24    11    12 1   
    25    11    15 1   
    26    11    27 1   
    27    12    13 1   
    28    12    28 1   
    29    12    29 1   
    30    13    14 1   
    31    13    30 1   
    32    13    31 1   
    33    15    16 1   
    34    15    17 1   
@<TRIPOS>SUBSTRUCTURE
     1 2WP         1 TEMP              0 ****  ****    0 ROOT
