@<TRIPOS>MOLECULE
molecule
   27    27     1     0     0
SMALL
bcc


@<TRIPOS>ATOM
      1 O1           0.0000     0.0000     0.0000 os         1 2WQ      -0.230900
      2 C2           1.4290     0.0000     0.0000 c3         1 2WQ       0.008400
      3 C3           1.9310     0.0000     1.4200 c          1 2WQ       0.893600
      4 O4           3.2500     0.0000     1.6660 o          1 2WQ      -0.818300
      5 O6           1.1460     0.0000     2.3390 o          1 2WQ      -0.818300
      6 C9          -0.6160    -0.0000    -1.2090 ca         1 2WQ       0.239100
      7 C10         -2.0170     0.0060    -1.2860 ca         1 2WQ      -0.203600
      8 C11         -2.8260     0.0120    -0.0540 c          1 2WQ       0.662700
      9 O12         -2.2790     0.0130     1.0330 o          1 2WQ      -0.536100
     10 N13         -4.1710     0.0170    -0.1310 ns         1 2WQ      -0.586900
     11 C15         -4.9760     0.0240     1.0920 c3         1 2WQ       0.187100
     12 C17         -6.4050     0.0280     0.7410 c1         1 2WQ      -0.143100
     13 C18         -7.5500     0.0260     0.4800 c1         1 2WQ      -0.167500
     14 C21         -2.6400     0.0060    -2.5360 ca         1 2WQ      -0.040000
     15 C23         -1.8790    -0.0000    -3.6840 ca         1 2WQ      -0.270000
     16 C25         -0.4940    -0.0060    -3.6050 ca         1 2WQ       0.176900
     17 F26          0.2440    -0.0110    -4.7370 f          1 2WQ      -0.150900
     18 C27          0.1360     0.0000    -2.3730 ca         1 2WQ      -0.291000
     19 H1           1.7900    -0.8850    -0.5110 h1         1 2WQ       0.030200
     20 H2           1.7900     0.8840    -0.5110 h1         1 2WQ       0.030200
     21 H4          -4.6230     0.3540    -0.9590 hn         1 2WQ       0.301500
     22 H5          -4.7130    -0.8320     1.7020 h1         1 2WQ       0.071200
     23 H6          -4.7820     0.9350     1.6460 h1         1 2WQ       0.071200
     24 H7          -8.6040     0.0410     0.2330 ha         1 2WQ       0.158500
     25 H8          -3.6710     0.1840    -2.8160 ha         1 2WQ       0.129000
     26 H9          -2.1520    -0.3270    -4.6800 ha         1 2WQ       0.134000
     27 H10          1.1250    -0.4320    -2.2740 ha         1 2WQ       0.164000
@<TRIPOS>BOND
     1    11    12 1   
     2    11    10 1   
     3     9     8 2   
     4    12    13 3   
     5     8    10 1   
     6     8     7 1   
     7    14     7 ar  
     8    14    15 ar  
     9     7     6 ar  
    10    15    16 ar  
    11     5     3 1   
    12     6     1 1   
    13     6    18 ar  
    14     1     2 1   
    15    16    18 ar  
    16    16    17 1   
    17     3     2 1   
    18     3     4 1   
    19     2    19 1   
    20     2    20 1   
    21    10    21 1   
    22    11    22 1   
    23    11    23 1   
    24    13    24 1   
    25    14    25 1   
    26    15    26 1   
    27    18    27 1   
@<TRIPOS>SUBSTRUCTURE
     1 2WQ         1 TEMP              0 ****  ****    0 ROOT
