@<TRIPOS>MOLECULE
2WQ
   27    27     1     0     0
SMALL
bcc


@<TRIPOS>ATOM
      1 O1           0.0000     0.0000     0.0000 os         1 2WQ      -0.199900
      2 C2           1.4290     0.0000     0.0000 c3         1 2WQ       0.069400
      3 C3           1.9310     0.0000     1.4200 c          1 2WQ       0.971600
      4 O4           3.2500     0.0000     1.6660 o          1 2WQ      -0.873800
      5 O6           1.1460     0.0000     2.3390 o          1 2WQ      -0.873800
      6 C9          -0.6160    -0.0000    -1.2090 ca         1 2WQ       0.253100
      7 C10         -2.0170     0.0060    -1.2860 ca         1 2WQ      -0.217600
      8 C11         -2.8260     0.0120    -0.0540 c          1 2WQ       0.588700
      9 O12         -2.2790     0.0130     1.0330 o          1 2WQ      -0.572100
     10 N13         -4.1710     0.0170    -0.1310 ns         1 2WQ      -0.228900
     11 C15         -4.9760     0.0240     1.0920 c3         1 2WQ       0.174100
     12 C17         -6.4050     0.0280     0.7410 c1         1 2WQ      -0.160100
     13 C18         -7.5500     0.0260     0.4800 c1         1 2WQ      -0.137500
     14 C21         -2.6400     0.0060    -2.5360 ca         1 2WQ      -0.011000
     15 C23         -1.8790    -0.0000    -3.6840 ca         1 2WQ      -0.251000
     16 C25         -0.4940    -0.0060    -3.6050 ca         1 2WQ       0.150900
     17 F26          0.2440    -0.0110    -4.7370 f          1 2WQ      -0.138900
     18 C27          0.1360     0.0000    -2.3730 ca         1 2WQ      -0.278000
     19 H1           1.7900    -0.8850    -0.5110 h1         1 2WQ      -0.001300
     20 H2           1.7900     0.8840    -0.5110 h1         1 2WQ      -0.001300
     21 H4          -4.6230     0.3540    -0.9590 hn         1 2WQ       0.169500
     22 H5          -4.7130    -0.8320     1.7020 h1         1 2WQ       0.032700
     23 H6          -4.7820     0.9350     1.6460 h1         1 2WQ       0.032700
     24 H7          -8.6040     0.0410     0.2330 ha         1 2WQ       0.134500
     25 H8          -3.6710     0.1840    -2.8160 ha         1 2WQ       0.101000
     26 H9          -2.1520    -0.3270    -4.6800 ha         1 2WQ       0.116000
     27 H10          1.1250    -0.4320    -2.2740 ha         1 2WQ       0.151000
@<TRIPOS>BOND
     1     1     2 1   
     2     1     6 1   
     3     2     3 1   
     4     2    19 1   
     5     2    20 1   
     6     3     4 1   
     7     3     5 1   
     8     6     7 ar  
     9     6    18 ar  
    10     7     8 1   
    11     7    14 ar  
    12     8     9 2   
    13     8    10 1   
    14    10    11 1   
    15    10    21 1   
    16    11    12 1   
    17    11    22 1   
    18    11    23 1   
    19    12    13 3   
    20    13    24 1   
    21    14    15 ar  
    22    14    25 1   
    23    15    16 ar  
    24    15    26 1   
    25    16    17 1   
    26    16    18 ar  
    27    18    27 1   
@<TRIPOS>SUBSTRUCTURE
     1 2WQ         1 TEMP              0 ****  ****    0 ROOT
