@<TRIPOS>MOLECULE
molecule
   23    23     1     0     0
SMALL
bcc


@<TRIPOS>ATOM
      1 C1           0.0000     0.0000     0.0000 ca         1 2WR       0.276100
      2 C2           1.4030     0.0000     0.0000 ca         1 2WR      -0.288600
      3 C3           2.1440    -0.0000    -1.2740 c          1 2WR       0.477700
      4 N4           3.4910    -0.0010    -1.2690 nz         1 2WR      -0.675400
      5 O7           1.5390    -0.0000    -2.3290 o          1 2WR      -0.361100
      6 C8           2.0940     0.0000     1.2150 ca         1 2WR      -0.066000
      7 C10          1.3970     0.0010     2.4020 ca         1 2WR      -0.214000
      8 C12          0.0090     0.0010     2.3980 ca         1 2WR       0.234900
      9 F13         -0.6660     0.0010     3.5690 f          1 2WR      -0.114900
     10 C14         -0.6870     0.0070     1.2040 ca         1 2WR      -0.267000
     11 O16         -0.6800    -0.0000    -1.1730 os         1 2WR      -0.233900
     12 C17         -2.1080     0.0070    -1.0960 c3         1 2WR      -0.002600
     13 C18         -2.6860     0.0060    -2.4870 c          1 2WR       0.893600
     14 O19         -4.0180     0.0120    -2.6590 o          1 2WR      -0.796300
     15 O21         -1.9530    -0.0000    -3.4470 o          1 2WR      -0.796300
     16 H1           3.8240     0.8160    -0.7960 hn         1 2WR       0.464133
     17 H2           3.8280    -0.0010    -2.2120 hn         1 2WR       0.464133
     18 H3           3.1770     0.0000     1.2220 ha         1 2WR       0.102000
     19 H4           1.9350     0.0010     3.3430 ha         1 2WR       0.157000
     20 H5          -1.7710     0.0070     1.2080 ha         1 2WR       0.193000
     21 H6          -2.4360     0.8950    -0.5690 h1         1 2WR       0.044700
     22 H7          -2.4450    -0.8740    -0.5640 h1         1 2WR       0.044700
     23 H43          3.8230    -0.8250    -0.8080 hn         1 2WR       0.464133
@<TRIPOS>BOND
     1     5     3 2   
     2     3     4 1   
     3     3     2 1   
     4     6     2 ar  
     5     6     7 ar  
     6     2     1 ar  
     7     7     8 ar  
     8    15    13 1   
     9     1    11 1   
    10     1    10 ar  
    11    11    12 1   
    12     8    10 ar  
    13     8     9 1   
    14    13    12 1   
    15    13    14 1   
    16     4    16 1   
    17     4    17 1   
    18     6    18 1   
    19     7    19 1   
    20    10    20 1   
    21    12    21 1   
    22    12    22 1   
    23    23     4 1   
@<TRIPOS>SUBSTRUCTURE
     1 2WR         1 TEMP              0 ****  ****    0 ROOT
