@<TRIPOS>MOLECULE
2WS
   54    56     1     0     0
SMALL
bcc


@<TRIPOS>ATOM
      1 C01         0.2230   -0.6520   -0.2180 c3        1 2WS      0.109400
      2 C02         1.7430   -0.7560   -0.0830 c3        1 2WS      0.070100
      3 C03         2.1710   -0.2160    1.2900 c3        1 2WS      0.109100
      4 C04         1.4160   -0.9540    2.4080 c3        1 2WS      0.129100
      5 C05        -0.1010   -0.9380    2.1300 c3        1 2WS      0.338900
      6 O06        -0.4230   -1.3810    0.8120 os        1 2WS     -0.451600
      7 O07        -0.6740   -1.9690    2.9050 os        1 2WS     -0.401600
      8 C08        -2.1000   -1.9010    3.0250 c3        1 2WS      0.077100
      9 C09        -2.4410   -1.5910    4.4840 c3        1 2WS      0.123400
     10 O10        -3.8440   -1.6260    4.6830 os        1 2WS     -0.428600
     11 C11        -4.4390   -2.8860    4.3920 c3        1 2WS      0.336900
     12 C12        -4.1460   -3.3710    2.9570 c3        1 2WS      0.128100
     13 C13        -2.6410   -3.2880    2.6520 c3        1 2WS      0.100100
     14 O14        -2.5070   -3.5470    1.2650 oh        1 2WS     -0.612800
     15 O15        -4.5690   -4.7230    2.9030 oh        1 2WS     -0.594800
     16 O16        -5.8170   -2.5750    4.4360 os        1 2WS     -0.387600
     17 C17        -6.3220   -2.3270    5.7530 c3        1 2WS      0.115100
     18 C18        -6.6500   -3.6770    6.4050 c3        1 2WS      0.107400
     19 O19        -7.3810   -3.5210    7.6130 os        1 2WS     -0.444600
     20 C20        -8.6210   -2.8530    7.4320 c3        1 2WS      0.307900
     21 C21        -8.3980   -1.4380    6.8680 c3        1 2WS      0.048100
     22 C22        -7.5970   -1.4880    5.5560 c3        1 2WS      0.153100
     23 O23        -7.1870   -0.1790    5.2040 oh        1 2WS     -0.580800
     24 O24        -9.6390   -0.8300    6.5530 oh        1 2WS     -0.600800
     25 O25        -9.1540   -2.8110    8.7280 oh        1 2WS     -0.597800
     26 O26         1.5990   -0.2730    3.6360 oh        1 2WS     -0.590800
     27 O27         3.5490   -0.4510    1.5250 oh        1 2WS     -0.603800
     28 O28         2.3970    0.0580   -1.0440 oh        1 2WS     -0.599800
     29 H1         -0.0980    0.4230   -0.1960 h1        1 2WS      0.062700
     30 H2         -0.1340   -1.1370   -1.1660 h1        1 2WS      0.062700
     31 H3          2.0750   -1.8250   -0.1910 h1        1 2WS      0.065700
     32 H4          1.9640    0.8890    1.3450 h1        1 2WS      0.065700
     33 H5          1.7820   -2.0140    2.4890 h1        1 2WS      0.079700
     34 H6         -0.5520    0.0700    2.3320 h2        1 2WS      0.068700
     35 H7         -2.5350   -1.1270    2.3390 h1        1 2WS      0.081700
     36 H8         -2.1460   -0.5430    4.7530 h1        1 2WS      0.065700
     37 H9         -1.9270   -2.3190    5.1660 h1        1 2WS      0.065700
     38 H10        -4.1410   -3.6510    5.1580 h2        1 2WS      0.054700
     39 H11        -4.7250   -2.7510    2.2190 h1        1 2WS      0.080700
     40 H12        -2.0840   -4.0800    3.2280 h1        1 2WS      0.063700
     41 H13        -1.6190   -3.2580    1.0090 ho        1 2WS      0.433000
     42 H14        -4.3910   -5.0230    2.0020 ho        1 2WS      0.424000
     43 H15        -5.5770   -1.7480    6.3610 h1        1 2WS      0.087700
     44 H16        -7.2250   -4.3210    5.6880 h1        1 2WS      0.066700
     45 H17        -5.7110   -4.2040    6.7210 h1        1 2WS      0.066700
     46 H18        -9.3360   -3.4480    6.8000 h2        1 2WS      0.086700
     47 H19        -7.8510   -0.8080    7.6240 h1        1 2WS      0.061700
     48 H20        -8.2270   -1.9310    4.7360 h1        1 2WS      0.066700
     49 H21        -7.9980    0.3230    5.0490 ho        1 2WS      0.416000
     50 H22       -10.1870   -0.8930    7.3470 ho        1 2WS      0.421000
     51 H23        -8.4260   -2.6660    9.3500 ho        1 2WS      0.427000
     52 H24         2.5480   -0.2970    3.8190 ho        1 2WS      0.426000
     53 H25         4.0270   -0.0420    0.7910 ho        1 2WS      0.427000
     54 H26         2.1860   -0.3090   -1.9110 ho        1 2WS      0.413000
@<TRIPOS>BOND
     1    1    2 1   
     2    1    6 1   
     3    1   29 1   
     4    1   30 1   
     5    2    3 1   
     6    2   28 1   
     7    2   31 1   
     8    3    4 1   
     9    3   27 1   
    10    3   32 1   
    11    4    5 1   
    12    4   26 1   
    13    4   33 1   
    14    5    6 1   
    15    5    7 1   
    16    5   34 1   
    17    7    8 1   
    18    8    9 1   
    19    8   13 1   
    20    8   35 1   
    21    9   10 1   
    22    9   36 1   
    23    9   37 1   
    24   10   11 1   
    25   11   12 1   
    26   11   16 1   
    27   11   38 1   
    28   12   13 1   
    29   12   15 1   
    30   12   39 1   
    31   13   14 1   
    32   13   40 1   
    33   14   41 1   
    34   15   42 1   
    35   16   17 1   
    36   17   18 1   
    37   17   22 1   
    38   17   43 1   
    39   18   19 1   
    40   18   44 1   
    41   18   45 1   
    42   19   20 1   
    43   20   21 1   
    44   20   25 1   
    45   20   46 1   
    46   21   22 1   
    47   21   24 1   
    48   21   47 1   
    49   22   23 1   
    50   22   48 1   
    51   23   49 1   
    52   24   50 1   
    53   25   51 1   
    54   26   52 1   
    55   27   53 1   
    56   28   54 1   
@<TRIPOS>SUBSTRUCTURE
     1 2WS         1 TEMP              0 ****  ****    0 ROOT
