@<TRIPOS>MOLECULE
molecule
   54    56     1     0     0
SMALL
bcc


@<TRIPOS>ATOM
      1 C01          0.0000     0.0000     0.0000 c3         1 2WS       0.127400
      2 C02          1.5310     0.0000     0.0000 c3         1 2WS       0.098100
      3 C03          2.0340     0.0000     1.4470 c3         1 2WS       0.134100
      4 C04          1.4520    -1.2140     2.1790 c3         1 2WS       0.117100
      5 C05         -0.0760    -1.1660     2.0940 c3         1 2WS       0.336900
      6 O06         -0.4750    -1.1380     0.7220 os         1 2WS      -0.436600
      7 O07         -0.6250    -2.3240     2.7260 os         1 2WS      -0.391600
      8 C08         -2.0510    -2.3240     2.8020 c3         1 2WS       0.098100
      9 C09         -2.4940    -1.6600     4.1090 c3         1 2WS       0.122400
     10 O10         -3.9170    -1.7120     4.2100 os         1 2WS      -0.434600
     11 C11         -4.4520    -3.0370     4.2370 c3         1 2WS       0.336900
     12 C12         -4.0890    -3.7570     2.9350 c3         1 2WS       0.114100
     13 C13         -2.5660    -3.7670     2.7740 c3         1 2WS       0.140100
     14 O14         -2.2210    -4.3720     1.5260 oh         1 2WS      -0.587800
     15 O15         -4.5740    -5.1000     2.9810 oh         1 2WS      -0.597800
     16 O16         -5.8740    -2.9750     4.3650 os         1 2WS      -0.391600
     17 C17         -6.3210    -2.4190     5.6040 c3         1 2WS       0.098100
     18 C18         -6.4920    -3.5370     6.6350 c3         1 2WS       0.124400
     19 O19         -6.9950    -2.9870     7.8540 os         1 2WS      -0.442600
     20 C20         -8.2730    -2.3600     7.7290 c3         1 2WS       0.334900
     21 C21         -8.1730    -1.1940     6.7410 c3         1 2WS       0.113100
     22 C22         -7.6660    -1.7180     5.3940 c3         1 2WS       0.143100
     23 O23         -7.5010    -0.6250     4.4880 oh         1 2WS      -0.587800
     24 O24         -9.4620    -0.6020     6.5700 oh         1 2WS      -0.597800
     25 O25         -8.6910    -1.8710     9.0040 oh         1 2WS      -0.578800
     26 O26          1.8550    -1.1850     3.5480 oh         1 2WS      -0.594800
     27 O27          3.4610    -0.0730     1.4570 oh         1 2WS      -0.596800
     28 O28          2.0090     1.1670    -0.6710 oh         1 2WS      -0.597800
     29 H1          -0.3600    -0.0460    -1.0210 h1         1 2WS       0.061700
     30 H2          -0.3600     0.9040     0.4750 h1         1 2WS       0.061700
     31 H3           1.8910    -0.8870    -0.5060 h1         1 2WS       0.059700
     32 H4           1.7100     0.9080     1.9410 h1         1 2WS       0.058700
     33 H5           1.8100    -2.1230     1.7100 h1         1 2WS       0.068700
     34 H6          -0.4360    -0.2740     2.5920 h2         1 2WS       0.040700
     35 H7          -2.4630    -1.7780     1.9630 h1         1 2WS       0.082700
     36 H8          -2.0540    -2.1860     4.9470 h1         1 2WS       0.061200
     37 H9          -2.1700    -0.6260     4.1150 h1         1 2WS       0.061200
     38 H10         -4.0320    -3.5780     5.0760 h2         1 2WS       0.038700
     39 H11         -4.5360    -3.2340     2.0980 h1         1 2WS       0.071700
     40 H12         -2.1200    -4.3250     3.5880 h1         1 2WS       0.053700
     41 H13         -1.7860    -5.1930     1.6850 ho         1 2WS       0.412000
     42 H14         -5.1300    -5.2600     2.2370 ho         1 2WS       0.417000
     43 H15         -5.5940    -1.7020     5.9680 h1         1 2WS       0.082700
     44 H16         -5.5340    -4.0070     6.8200 h1         1 2WS       0.059700
     45 H17         -7.1930    -4.2720     6.2550 h1         1 2WS       0.059700
     46 H18         -8.9920    -3.0810     7.3610 h2         1 2WS       0.034700
     47 H19         -7.4780    -0.4570     7.1250 h1         1 2WS       0.071700
     48 H20         -8.3820    -2.4240     4.9900 h1         1 2WS       0.052700
     49 H21         -8.1360    -0.6920     3.7950 ho         1 2WS       0.412000
     50 H22         -9.4380     0.2940     6.8640 ho         1 2WS       0.418000
     51 H23         -9.0770    -2.5740     9.5000 ho         1 2WS       0.414000
     52 H24          2.3990    -1.9330     3.7320 ho         1 2WS       0.417000
     53 H25          3.8110     0.6800     1.9030 ho         1 2WS       0.416000
     54 H26          2.3020     0.9340    -1.5370 ho         1 2WS       0.411000
@<TRIPOS>BOND
     1    14    13 1
     2     6     1 1
     3     6     5 1
     4     2     1 1
     5     2    28 1
     6     2     3 1
     7     7     5 1
     8     7     8 1
     9    27     3 1
    10     4     5 1
    11     4     3 1
    12     4    26 1
    13    13     8 1
    14    13    12 1
    15    15    12 1
    16     8     9 1
    17    12    11 1
    18     9    10 1
    19    11    10 1
    20    11    16 1
    21    16    17 1
    22    18    17 1
    23    18    19 1
    24    17    22 1
    25    19    20 1
    26    22    23 1
    27    22    21 1
    28    20    21 1
    29    20    25 1
    30    21    24 1
    31     1    29 1
    32     1    30 1
    33     2    31 1
    34     3    32 1
    35     4    33 1
    36     5    34 1
    37     8    35 1
    38     9    36 1
    39     9    37 1
    40    11    38 1
    41    12    39 1
    42    13    40 1
    43    14    41 1
    44    15    42 1
    45    17    43 1
    46    18    44 1
    47    18    45 1
    48    20    46 1
    49    21    47 1
    50    22    48 1
    51    23    49 1
    52    24    50 1
    53    25    51 1
    54    26    52 1
    55    27    53 1
    56    28    54 1
@<TRIPOS>SUBSTRUCTURE
     1 2WS         1 TEMP              0 ****  ****    0 ROOT
