@<TRIPOS>MOLECULE
molecule
   62    66     1     0     0
SMALL
bcc


@<TRIPOS>ATOM
      1 O2           0.0000     0.0000     0.0000 o          1 2WT      -0.827800
      2 C11          6.7750    -0.0030     4.9790 ca         1 2WT      -0.008800
      3 C12          7.8250    -0.8500     4.6260 ca         1 2WT      -0.132000
      4 C13          8.9960    -0.8410     5.3670 ca         1 2WT       0.043600
      5 C27         18.7990    -0.8740     7.3990 ca         1 2WT      -0.114000
      6 C14          9.1220     0.0120     6.4580 ca         1 2WT      -0.131000
      7 C16          6.9110     0.8500     6.0770 ca         1 2WT      -0.134000
      8 C18         12.4620    -2.1490     4.7010 c3         1 2WT      -0.145400
      9 C20         14.9290    -2.3270     4.5250 c          1 2WT       0.646100
     10 C21         17.3070    -2.7640     4.2230 c3         1 2WT       0.321300
     11 C26         19.9370    -0.1660     7.7470 ca         1 2WT       0.049100
     12 C25         20.5320     0.6910     6.8230 ca         1 2WT       0.017100
     13 C24         19.9800     0.8310     5.5600 ca         1 2WT      -0.109000
     14 C23         18.8420     0.1230     5.2190 ca         1 2WT      -0.158000
     15 C22         18.2540    -0.7280     6.1360 ca         1 2WT      -0.260300
     16 C19         13.7940    -1.4560     4.9970 c3         1 2WT      -0.135400
     17 C15          8.0810     0.8520     6.8090 ca         1 2WT      -0.123000
     18 C28         21.9330     0.4420     8.5440 c3         1 2WT       0.331200
     19 N2          10.0530    -1.6890     5.0170 ns         1 2WT      -0.470100
     20 C7           1.2150     0.0000     0.0000 c          1 2WT       0.884200
     21 C8           5.4540     0.0000     2.8370 cc         1 2WT       0.014600
     22 C9           5.5250    -0.0020     4.1910 cd         1 2WT      -0.007300
     23 O4          11.5600    -0.2100     5.6970 o          1 2WT      -0.605100
     24 C6           3.3240    -0.0040     3.7040 ca         1 2WT      -0.013200
     25 N1           4.2520    -0.0050     4.7180 na         1 2WT      -0.069400
     26 C5           4.0330    -0.0010     2.4850 ca         1 2WT      -0.124800
     27 C1           1.9330    -0.0040     3.6930 ca         1 2WT      -0.267000
     28 C2           1.2500    -0.0020     2.4950 ca         1 2WT       0.183100
     29 C3           1.9530    -0.0010     1.2740 ca         1 2WT      -0.138600
     30 C4           3.3440     0.0000     1.2740 ca         1 2WT      -0.030000
     31 N3          16.2040    -1.9180     4.6820 ns         1 2WT      -0.581900
     32 O3           1.8880     0.0010    -1.1680 o          1 2WT      -0.827800
     33 O5          14.6970    -3.3970     4.0020 o          1 2WT      -0.621100
     34 O6          20.6610    -0.1300     8.9040 os         1 2WT      -0.331900
     35 O7          21.6270     1.2640     7.4010 os         1 2WT      -0.330900
     36 H1           7.7250    -1.5130     3.7750 ha         1 2WT       0.152000
     37 H3          10.0390     0.0170     7.0360 ha         1 2WT       0.157000
     38 H4           6.0970     1.5090     6.3540 ha         1 2WT       0.135000
     39 H5          12.4280    -3.1010     5.2190 hc         1 2WT       0.077700
     40 H6          12.3700    -2.3150     3.6350 hc         1 2WT       0.077700
     41 H7          17.7890    -3.7110     4.4350 h1         1 2WT       0.091200
     42 H8          17.5520    -2.4530     3.2140 h1         1 2WT       0.091200
     43 H10         18.4120     0.2340     4.2310 ha         1 2WT       0.123000
     44 H11         13.8850    -1.2910     6.0640 hc         1 2WT       0.085700
     45 H12         13.8290    -0.5050     4.4800 hc         1 2WT       0.085700
     46 H13          8.1850     1.5140     7.6600 ha         1 2WT       0.129000
     47 H14         22.6360    -0.3360     8.2730 h2         1 2WT       0.061700
     48 H15          9.8630    -2.6150     4.6870 hn         1 2WT       0.327500
     49 H20          1.3850    -0.0080     4.6280 ha         1 2WT       0.110000
     50 H21          3.8860     0.1160     0.3430 ha         1 2WT       0.172000
     51 H22         16.3960    -1.0350     5.1130 hn         1 2WT       0.395500
     52 H25         22.3190     1.0490     9.3540 h2         1 2WT       0.061700
     53 C10          3.9340    -0.0060     6.1500 c3         1 2WT       0.043600
     54 C17         11.3270    -1.2790     5.1750 c          1 2WT       0.658100
     55 O1          -0.1070    -0.0030     2.4910 oh         1 2WT      -0.460100
     56 H2          18.3550    -1.5660     8.1040 ha         1 2WT       0.137000
     57 H16          4.1000     0.9840     6.5570 h1         1 2WT       0.042367
     58 H17          4.5700    -0.7190     6.6600 h1         1 2WT       0.042367
     59 H18          2.8960    -0.2840     6.2890 h1         1 2WT       0.042367
     60 H19         -0.4240     0.6660     3.0740 ho         1 2WT       0.394000
     61 I            7.0710     0.0100     1.5040 i          1 2WT      -0.158800
     62 H9          20.4390     1.4970     4.8390 ha         1 2WT       0.135000
@<TRIPOS>BOND
     1    35    18 1
     2    35    12 1
     3    18    34 1
     4     1    20 1
     5    12    13 ar
     6    12    11 ar
     7    13    14 ar
     8    34    11 1
     9    20    32 1
    10    20    29 1
    11    11     5 ar
    12    61    21 1
    13    30    29 ar
    14    30    26 ar
    15    14    15 ar
    16    29    28 ar
    17     5    15 ar
    18    23    54 2
    19    26    21 1
    20    26    24 ar
    21    15    10 1
    22    21    22 2
    23    28    55 1
    24    28    27 ar
    25    54    19 1
    26    54     8 1
    27    24    27 ar
    28    24    25 1
    29    22     2 1
    30    22    25 1
    31     3     2 ar
    32     3     4 ar
    33    19     4 1
    34    10    31 1
    35     2     7 ar
    36     4     6 ar
    37    25    53 1
    38    31     9 1
    39     8    16 1
    40     6    17 ar
    41     7    17 ar
    42    16     9 1
    43     9    33 2
    44     3    36 1
    45     5    56 1
    46     6    37 1
    47     7    38 1
    48     8    39 1
    49     8    40 1
    50    10    41 1
    51    10    42 1
    52    13    62 1
    53    14    43 1
    54    16    44 1
    55    16    45 1
    56    17    46 1
    57    18    47 1
    58    19    48 1
    59    53    57 1
    60    53    58 1
    61    53    59 1
    62    55    60 1
    63    27    49 1
    64    30    50 1
    65    31    51 1
    66    18    52 1
@<TRIPOS>SUBSTRUCTURE
     1 2WT         1 TEMP              0 ****  ****    0 ROOT
