@<TRIPOS>MOLECULE
2WU
   28    30     1     0     0
SMALL
bcc


@<TRIPOS>ATOM
      1 N1           0.0000     0.0000     0.0000 na         1 2WU       0.224700
      2 N3           1.8140     0.0000     1.2300 nc         1 2WU      -0.588100
      3 C4           1.3670     0.0000     0.0000 cd         1 2WU       0.380700
      4 C5           1.5400    -0.0020    -2.4570 c3         1 2WU       0.184100
      5 C6           0.7660    -0.0060     2.0970 ca         1 2WU       0.157400
      6 C7           0.6840    -0.0080     3.4860 ca         1 2WU       0.025000
      7 C8          -0.5650    -0.0140     4.0990 ca         1 2WU      -0.165600
      8 C10         -3.0430    -0.0260     5.2480 cc         1 2WU      -0.040200
      9 C1          -1.7470    -0.0190     3.3170 ca         1 2WU       0.020400
     10 C2          -1.6560     0.0060     1.9270 ca         1 2WU       0.024000
     11 C3          -0.4120     0.0000     1.3210 ca         1 2WU      -0.279200
     12 N2           2.1580    -0.0010    -1.1290 nu         1 2WU      -0.423200
     13 C9          -0.7030    -0.0170     5.5620 c          1 2WU       0.630100
     14 O1           0.2750    -0.0130     6.2870 o          1 2WU      -0.594500
     15 N4          -1.9550    -0.0230     6.0730 ns         1 2WU      -0.027400
     16 N5          -4.2940    -0.0310     5.8150 nz         1 2WU       0.222400
     17 N6          -2.9510    -0.0250     3.9430 nd         1 2WU      -0.352100
     18 H1          -0.5930     0.0000    -0.8060 hn         1 2WU       0.145700
     19 H3           2.3130    -0.0020    -3.2160 h1         1 2WU       0.015700
     20 H4           0.9250    -0.8870    -2.5680 h1         1 2WU       0.015700
     21 H5           0.9250     0.8820    -2.5700 h1         1 2WU       0.015700
     22 H6           1.5800    -0.1360     4.0810 ha         1 2WU       0.149000
     23 H7          -2.5530    -0.0700     1.3240 ha         1 2WU       0.117000
     24 H8           3.1550    -0.0000    -1.0420 hn         1 2WU       0.324800
     25 H9          -2.0850    -0.0260     7.0650 hn         1 2WU       0.182500
     26 H10         -4.4020    -0.8520     6.3780 hn         1 2WU       0.211467
     27 H11         -4.4040     0.7820     6.3880 hn         1 2WU       0.211467
     28 H53         -4.9880    -0.0280     5.0940 hn         1 2WU       0.211467
@<TRIPOS>BOND
     1     1     3 1   
     2     1    11 1   
     3     1    18 1   
     4     2     3 2   
     5     2     5 1   
     6     3    12 1   
     7     4    12 1   
     8     4    19 1   
     9     4    20 1   
    10     4    21 1   
    11     5     6 ar  
    12     5    11 ar  
    13     6     7 ar  
    14     6    22 1   
    15     7     9 ar  
    16     7    13 1   
    17     8    15 1   
    18     8    16 1   
    19     8    17 2   
    20     9    10 ar  
    21     9    17 1   
    22    10    11 ar  
    23    10    23 1   
    24    12    24 1   
    25    13    14 2   
    26    13    15 1   
    27    15    25 1   
    28    16    26 1   
    29    16    27 1   
    30    16    28 1   
@<TRIPOS>SUBSTRUCTURE
     1 2WU         1 TEMP              0 ****  ****    0 ROOT
