@<TRIPOS>MOLECULE
molecule
   28    30     1     0     0
SMALL
bcc


@<TRIPOS>ATOM
      1 N1           0.0000     0.0000     0.0000 na         1 2WU      -0.291300
      2 N3           1.8140     0.0000     1.2300 nc         1 2WU      -0.657100
      3 C4           1.3670     0.0000     0.0000 cd         1 2WU       0.720700
      4 C5           1.5400    -0.0020    -2.4570 c3         1 2WU       0.214100
      5 C6           0.7660    -0.0060     2.0970 ca         1 2WU       0.177400
      6 C7           0.6840    -0.0080     3.4860 ca         1 2WU      -0.017000
      7 C8          -0.5650    -0.0140     4.0990 ca         1 2WU      -0.165600
      8 C10         -3.0430    -0.0260     5.2480 cd         1 2WU       0.427800
      9 C1          -1.7470    -0.0190     3.3170 ca         1 2WU       0.106400
     10 C2          -1.6560     0.0060     1.9270 ca         1 2WU      -0.041000
     11 C3          -0.4120     0.0000     1.3210 ca         1 2WU      -0.089200
     12 N2           2.1580    -0.0010    -1.1290 nu         1 2WU      -0.854200
     13 C9          -0.7030    -0.0170     5.5620 c          1 2WU       0.723100
     14 O1           0.2750    -0.0130     6.2870 o          1 2WU      -0.555500
     15 N4          -1.9550    -0.0230     6.0730 ns         1 2WU      -0.486400
     16 N5          -4.2940    -0.0310     5.8150 nz         1 2WU      -0.727600
     17 N6          -2.9510    -0.0250     3.9430 nc         1 2WU      -0.539100
     18 H1          -0.5930     0.0000    -0.8060 hn         1 2WU       0.317700
     19 H3           2.3130    -0.0020    -3.2160 h1         1 2WU       0.051033
     20 H4           0.9250    -0.8870    -2.5680 h1         1 2WU       0.051033
     21 H5           0.9250     0.8820    -2.5700 h1         1 2WU       0.051033
     22 H6           1.5800    -0.1360     4.0810 ha         1 2WU       0.187000
     23 H7          -2.5530    -0.0700     1.3240 ha         1 2WU       0.155000
     24 H8           3.1550    -0.0000    -1.0420 hn         1 2WU       0.488800
     25 H9          -2.0850    -0.0260     7.0650 hn         1 2WU       0.339500
     26 H10         -4.4020    -0.8520     6.3780 hn         1 2WU       0.472133
     27 H11         -4.4040     0.7820     6.3880 hn         1 2WU       0.472133
     28 H53         -4.9880    -0.0280     5.0940 hn         1 2WU       0.472133
@<TRIPOS>BOND
     1     4    12 1
     2    12     3 1
     3     3     1 1
     4     3     2 2
     5     1    11 1
     6     2     5 1
     7    11     5 ar
     8    11    10 ar
     9     5     6 ar
    10    10     9 ar
    11     6     7 ar
    12     9     7 ar
    13     9    17 1
    14     7    13 1
    15    17     8 2
    16    13    14 2
    17    13    15 1
    18     8    15 1
    19     8    16 1
    20     1    18 1
    21     4    19 1
    22     4    20 1
    23     4    21 1
    24     6    22 1
    25    10    23 1
    26    12    24 1
    27    15    25 1
    28    16    26 1
    29    16    27 1
    30    28    16 1
@<TRIPOS>SUBSTRUCTURE
     1 2WU         1 TEMP              0 ****  ****    0 ROOT
