@<TRIPOS>MOLECULE
molecule
   23    22     1     0     0
SMALL
bcc


@<TRIPOS>ATOM
      1 C4           0.0000     0.0000     0.0000 c3         1 2WW      -0.086100
      2 C5           2.0410     0.0000     1.4420 c3         1 2WW      -0.086100
      3 C3           1.6490    -1.1790    -2.2000 c3         1 2WW      -0.034700
      4 P11          2.1860    -2.7030    -3.0420 p5         1 2WW       0.888700
      5 O12          1.3720    -3.9590    -2.4490 o          1 2WW      -0.835500
      6 O13          1.8960    -2.5740    -4.6220 o          1 2WW      -0.835500
      7 N12          2.3000    -0.0190    -2.8240 nz         1 2WW      -0.845600
      8 C1           2.0410    -1.2480    -0.7220 c3         1 2WW      -0.069400
      9 C2           1.5300     0.0000     0.0000 c3         1 2WW      -0.098700
     10 H1          -0.3610    -1.0210     0.0170 hc         1 2WW       0.033533
     11 H2          -0.3610     0.5250     0.8760 hc         1 2WW       0.033533
     12 H3          -0.3610     0.4960    -0.8930 hc         1 2WW       0.033533
     13 H4           3.1230    -0.0490     1.4430 hc         1 2WW       0.033533
     14 H5           1.6400    -0.8590     1.9670 hc         1 2WW       0.033533
     15 H6           1.7210     0.9080     1.9390 hc         1 2WW       0.033533
     16 H7           0.5740    -1.0790    -2.2850 hx         1 2WW       0.084700
     17 H10          1.3150     0.1240    -2.9300 hn         1 2WW       0.456133
     18 H11          2.7440     0.6050    -2.1810 hn         1 2WW       0.456133
     19 H13          1.6000    -2.1300    -0.2730 hc         1 2WW       0.092200
     20 H14          3.1190    -1.2990    -0.6360 hc         1 2WW       0.092200
     21 H15          1.8910     0.8850    -0.5100 hc         1 2WW       0.001700
     22 O11          3.6350    -2.9060    -2.8210 o          1 2WW      -0.835500
     23 H123         2.7860    -0.2220    -3.6750 hn         1 2WW       0.456133
@<TRIPOS>BOND
     1     6     4 1   
     2     1     9 1   
     3     5     4 1   
     4     7     3 1   
     5     4     3 1   
     6     4    22 1   
     7     9     8 1   
     8     9     2 1   
     9     8     3 1   
    10     1    10 1   
    11     1    11 1   
    12     1    12 1   
    13     2    13 1   
    14     2    14 1   
    15     2    15 1   
    16     3    16 1   
    17     7    17 1   
    18     7    18 1   
    19     8    19 1   
    20     8    20 1   
    21     9    21 1   
    22    23     7 1   
@<TRIPOS>SUBSTRUCTURE
     1 2WW         1 TEMP              0 ****  ****    0 ROOT
