@<TRIPOS>MOLECULE
2WX
   52    56     1     0     0
SMALL
bcc


@<TRIPOS>ATOM
      1 C18          0.0000     0.0000     0.0000 cc         1 2WX      -0.071200
      2 C20          1.4540     0.0000     0.0000 ca         1 2WX      -0.080800
      3 C21          2.3490     0.0000     1.0920 ca         1 2WX      -0.054000
      4 C22          3.6940     0.0000     0.8810 ca         1 2WX      -0.103000
      5 C23          4.2070    -0.0010    -0.4090 ca         1 2WX      -0.088000
      6 C24          3.3580    -0.0010    -1.4910 ca         1 2WX      -0.058000
      7 C19          1.9730    -0.0000    -1.2980 ca         1 2WX       0.036900
      8 S2           0.6560    -0.0010    -2.4630 ss         1 2WX      -0.216500
      9 C3          -0.5550    -0.0050    -1.1950 cd         1 2WX      -0.018600
     10 C1          -2.0420    -0.0080    -1.4410 c3         1 2WX       0.348000
     11 C2          -2.5000     1.3910    -1.7630 ca         1 2WX      -0.121300
     12 C4          -2.7160     1.7630    -3.0770 ca         1 2WX      -0.076000
     13 C5          -3.1360     3.0450    -3.3720 ca         1 2WX      -0.097000
     14 C6          -3.3400     3.9590    -2.3540 ca         1 2WX      -0.091000
     15 C7          -3.1250     3.5890    -1.0410 ca         1 2WX      -0.102000
     16 C8          -2.7110     2.3020    -0.7440 ca         1 2WX      -0.021600
     17 Cl1         -2.4410     1.8360     0.9070 cl         1 2WX      -0.018400
     18 N1          -2.3490    -0.8940    -2.5670 n7         1 2WX      -0.582100
     19 S1          -3.7500    -1.7770    -2.5660 sy         1 2WX       1.042200
     20 O1          -3.7710    -2.4980    -3.7910 o          1 2WX      -0.581800
     21 O2          -3.8280    -2.4060    -1.2950 o          1 2WX      -0.581800
     22 C9          -5.0890    -0.6330    -2.6400 ca         1 2WX      -0.158500
     23 C10         -5.6360    -0.1370    -1.4700 ca         1 2WX      -0.006000
     24 C13         -6.6870     0.7620    -1.5300 ca         1 2WX       0.058100
     25 O4          -7.2370     1.2570    -0.3840 os         1 2WX      -0.307900
     26 C16         -7.0190     2.6480    -0.1370 c3         1 2WX       0.212400
     27 C17         -8.0520     3.4930    -0.8670 c3         1 2WX      -0.108400
     28 C15         -7.9300     3.3790    -2.3780 c3         1 2WX       0.221400
     29 O3          -8.2240     2.0500    -2.8110 os         1 2WX      -0.317900
     30 C14         -7.1870     1.1630    -2.7610 ca         1 2WX       0.136100
     31 C11         -6.6370     0.6650    -3.9300 ca         1 2WX      -0.137000
     32 C12         -5.5830    -0.2290    -3.8640 ca         1 2WX       0.006000
     33 H1          -0.5830    -0.0010     0.9130 ha         1 2WX       0.131000
     34 H2           1.9640     0.0010     2.1040 ha         1 2WX       0.105000
     35 H3           4.3700     0.0010     1.7280 ha         1 2WX       0.106000
     36 H4           5.2790    -0.0000    -0.5640 ha         1 2WX       0.106000
     37 H5           3.7630    -0.0020    -2.4950 ha         1 2WX       0.111000
     38 H6          -2.5540    -0.3600    -0.5530 h1         1 2WX       0.064700
     39 H7          -2.5560     1.0480    -3.8760 ha         1 2WX       0.118000
     40 H8          -3.3050     3.3360    -4.4020 ha         1 2WX       0.107000
     41 H9          -3.6670     4.9650    -2.5870 ha         1 2WX       0.106000
     42 H10         -3.2880     4.3030    -0.2430 ha         1 2WX       0.116000
     43 H11         -1.6890    -1.0050    -3.3100 hn         1 2WX       0.365800
     44 H12         -5.3150    -0.5300    -0.5130 ha         1 2WX       0.138000
     45 H13         -6.0290     2.9190    -0.4840 h1         1 2WX       0.013200
     46 H14         -7.0940     2.8350     0.9270 h1         1 2WX       0.013200
     47 H15         -9.0420     3.1680    -0.5710 hc         1 2WX       0.034700
     48 H16         -7.9180     4.5300    -0.5830 hc         1 2WX       0.034700
     49 H17         -8.6430     4.0550    -2.8330 h1         1 2WX       0.013200
     50 H18         -6.9110     3.6150    -2.6600 h1         1 2WX       0.013200
     51 H19         -7.0240     0.9810    -4.8910 ha         1 2WX       0.122000
     52 H20         -5.1550    -0.6260    -4.7770 ha         1 2WX       0.125000
@<TRIPOS>BOND
     1     1     2 1   
     2     1     9 2   
     3     1    33 1   
     4     2     3 ar  
     5     2     7 ar  
     6     3     4 ar  
     7     3    34 1   
     8     4     5 ar  
     9     4    35 1   
    10     5     6 ar  
    11     5    36 1   
    12     6     7 ar  
    13     6    37 1   
    14     7     8 1   
    15     8     9 1   
    16     9    10 1   
    17    10    11 1   
    18    10    18 1   
    19    10    38 1   
    20    11    12 ar  
    21    11    16 ar  
    22    12    13 ar  
    23    12    39 1   
    24    13    14 ar  
    25    13    40 1   
    26    14    15 ar  
    27    14    41 1   
    28    15    16 ar  
    29    15    42 1   
    30    16    17 1   
    31    18    19 1   
    32    18    43 1   
    33    19    20 2   
    34    19    21 2   
    35    19    22 1   
    36    22    23 ar  
    37    22    32 ar  
    38    23    24 ar  
    39    23    44 1   
    40    24    25 1   
    41    24    30 ar  
    42    25    26 1   
    43    26    27 1   
    44    26    45 1   
    45    26    46 1   
    46    27    28 1   
    47    27    47 1   
    48    27    48 1   
    49    28    29 1   
    50    28    49 1   
    51    28    50 1   
    52    29    30 1   
    53    30    31 ar  
    54    31    32 ar  
    55    31    51 1   
    56    32    52 1   
@<TRIPOS>SUBSTRUCTURE
     1 2WX         1 TEMP              0 ****  ****    0 ROOT
