@<TRIPOS>MOLECULE
molecule
   52    56     1     0     0
SMALL
bcc


@<TRIPOS>ATOM
      1 C18          0.0000     0.0000     0.0000 cc         1 2WX      -0.101200
      2 C20          1.4540     0.0000     0.0000 ca         1 2WX      -0.080800
      3 C21          2.3490     0.0000     1.0920 ca         1 2WX      -0.085000
      4 C22          3.6940     0.0000     0.8810 ca         1 2WX      -0.132000
      5 C23          4.2070    -0.0010    -0.4090 ca         1 2WX      -0.114000
      6 C24          3.3580    -0.0010    -1.4910 ca         1 2WX      -0.097000
      7 C19          1.9730    -0.0000    -1.2980 ca         1 2WX      -0.002100
      8 S2           0.6560    -0.0010    -2.4630 ss         1 2WX      -0.110500
      9 C3          -0.5550    -0.0050    -1.1950 cd         1 2WX      -0.046600
     10 C1          -2.0420    -0.0080    -1.4410 c3         1 2WX       0.367000
     11 C2          -2.5000     1.3910    -1.7630 ca         1 2WX      -0.105300
     12 C4          -2.7160     1.7630    -3.0770 ca         1 2WX      -0.098000
     13 C5          -3.1360     3.0450    -3.3720 ca         1 2WX      -0.125000
     14 C6          -3.3400     3.9590    -2.3540 ca         1 2WX      -0.119000
     15 C7          -3.1250     3.5890    -1.0410 ca         1 2WX      -0.124000
     16 C8          -2.7110     2.3020    -0.7440 ca         1 2WX       0.040400
     17 Cl1         -2.4410     1.8360     0.9070 cl         1 2WX      -0.104400
     18 N1          -2.3490    -0.8940    -2.5670 n7         1 2WX      -0.909100
     19 S1          -3.7500    -1.7770    -2.5660 sy         1 2WX       1.424200
     20 O1          -3.7710    -2.4980    -3.7910 o          1 2WX      -0.629800
     21 O2          -3.8280    -2.4060    -1.2950 o          1 2WX      -0.629800
     22 C9          -5.0890    -0.6330    -2.6400 ca         1 2WX      -0.313500
     23 C10         -5.6360    -0.1370    -1.4700 ca         1 2WX      -0.031000
     24 C13         -6.6870     0.7620    -1.5300 ca         1 2WX       0.061100
     25 O4          -7.2370     1.2570    -0.3840 os         1 2WX      -0.326900
     26 C16         -7.0190     2.6480    -0.1370 c3         1 2WX       0.140400
     27 C17         -8.0520     3.4930    -0.8670 c3         1 2WX      -0.154400
     28 C15         -7.9300     3.3790    -2.3780 c3         1 2WX       0.145400
     29 O3          -8.2240     2.0500    -2.8110 os         1 2WX      -0.335900
     30 C14         -7.1870     1.1630    -2.7610 ca         1 2WX       0.135100
     31 C11         -6.6370     0.6650    -3.9300 ca         1 2WX      -0.153000
     32 C12         -5.5830    -0.2290    -3.8640 ca         1 2WX      -0.027000
     33 H1          -0.5830    -0.0010     0.9130 ha         1 2WX       0.159000
     34 H2           1.9640     0.0010     2.1040 ha         1 2WX       0.134000
     35 H3           4.3700     0.0010     1.7280 ha         1 2WX       0.134000
     36 H4           5.2790    -0.0000    -0.5640 ha         1 2WX       0.135000
     37 H5           3.7630    -0.0020    -2.4950 ha         1 2WX       0.136000
     38 H6          -2.5540    -0.3600    -0.5530 h1         1 2WX       0.100700
     39 H7          -2.5560     1.0480    -3.8760 ha         1 2WX       0.142000
     40 H8          -3.3050     3.3360    -4.4020 ha         1 2WX       0.138000
     41 H9          -3.6670     4.9650    -2.5870 ha         1 2WX       0.137000
     42 H10         -3.2880     4.3030    -0.2430 ha         1 2WX       0.145000
     43 H11         -1.6890    -1.0050    -3.3100 hn         1 2WX       0.460800
     44 H12         -5.3150    -0.5300    -0.5130 ha         1 2WX       0.167000
     45 H13         -6.0290     2.9190    -0.4840 h1         1 2WX       0.054200
     46 H14         -7.0940     2.8350     0.9270 h1         1 2WX       0.054200
     47 H15         -9.0420     3.1680    -0.5710 hc         1 2WX       0.065200
     48 H16         -7.9180     4.5300    -0.5830 hc         1 2WX       0.065200
     49 H17         -8.6430     4.0550    -2.8330 h1         1 2WX       0.054700
     50 H18         -6.9110     3.6150    -2.6600 h1         1 2WX       0.054700
     51 H19         -7.0240     0.9810    -4.8910 ha         1 2WX       0.151000
     52 H20         -5.1550    -0.6260    -4.7770 ha         1 2WX       0.154000
@<TRIPOS>BOND
     1    15    14 ar  
     2    15    16 ar  
     3    14    13 ar  
     4     6     5 ar  
     5     6     7 ar  
     6    17    16 1   
     7     8     7 1   
     8     8     9 1   
     9     5     4 ar  
    10    16    11 ar  
    11     7     2 ar  
    12    13    12 ar  
    13    11    12 ar  
    14    11    10 1   
    15     4     3 ar  
    16     9    10 1   
    17     9     1 2   
    18     2     3 ar  
    19     2     1 1   
    20    10    18 1   
    21    26    27 1   
    22    26    25 1   
    23    27    28 1   
    24    28    29 1   
    25    25    24 1   
    26    18    19 1   
    27    24    23 ar  
    28    24    30 ar  
    29    23    22 ar  
    30    29    30 1   
    31    30    31 ar  
    32    22    19 1   
    33    22    32 ar  
    34    21    19 2   
    35    19    20 2   
    36    31    32 ar  
    37     1    33 1   
    38     3    34 1   
    39     4    35 1   
    40     5    36 1   
    41     6    37 1   
    42    10    38 1   
    43    12    39 1   
    44    13    40 1   
    45    14    41 1   
    46    15    42 1   
    47    18    43 1   
    48    23    44 1   
    49    26    45 1   
    50    26    46 1   
    51    27    47 1   
    52    27    48 1   
    53    28    49 1   
    54    28    50 1   
    55    31    51 1   
    56    32    52 1   
@<TRIPOS>SUBSTRUCTURE
     1 2WX         1 TEMP              0 ****  ****    0 ROOT
