@<TRIPOS>MOLECULE
2WY
   53    57     1     0     0
SMALL
bcc


@<TRIPOS>ATOM
      1 C7          0.6160   -0.2970   -0.0140 cc        1 2WY     -0.062200
      2 C1          1.9270   -0.3160   -0.6360 ca        1 2WY     -0.128800
      3 C6          3.2190   -0.6090   -0.2040 ca        1 2WY     -0.059000
      4 C5          4.2570   -0.5180   -1.1280 ca        1 2WY     -0.139000
      5 C4          4.0270   -0.1440   -2.4620 ca        1 2WY     -0.081000
      6 C3          2.7480    0.1560   -2.9290 ca        1 2WY     -0.129000
      7 C2          1.7200    0.0640   -1.9980 ca        1 2WY      0.077100
      8 O1          0.3620    0.3170   -2.2310 os        1 2WY     -0.237200
      9 C8         -0.2770    0.0830   -0.9860 cd        1 2WY     -0.082100
     10 C9         -1.7460    0.3040   -0.9510 c3        1 2WY      0.288000
     11 C10        -2.1020    1.7510   -0.7430 ca        1 2WY     -0.175300
     12 C11        -1.4140    2.7620   -1.4210 ca        1 2WY     -0.106000
     13 C12        -1.7300    4.0980   -1.1790 ca        1 2WY     -0.128000
     14 C13        -2.7270    4.4260   -0.2600 ca        1 2WY     -0.090000
     15 C14        -3.4170    3.4160    0.4140 ca        1 2WY     -0.128000
     16 C15        -3.1100    2.0780    0.1730 ca        1 2WY     -0.106000
     17 N1         -2.4060   -0.2290   -2.1970 n4        1 2WY     -0.709900
     18 S1         -4.1610   -0.9200   -1.9620 sy        1 2WY      1.490200
     19 O4         -3.9740   -2.2020   -2.4480 o         1 2WY     -0.581300
     20 O5         -4.4010   -0.7130   -0.6160 o         1 2WY     -0.581300
     21 C16        -4.9310    0.0680   -2.9550 ca        1 2WY     -0.559500
     22 C17        -5.2420   -0.3270   -4.2720 ca        1 2WY      0.010000
     23 C18        -6.0090    0.4750   -5.1180 ca        1 2WY      0.039100
     24 O2         -6.3910   -0.1420   -6.2920 os        1 2WY     -0.314900
     25 C23        -6.2640    0.6130   -7.5010 c3        1 2WY      0.121400
     26 C22        -7.3380    1.6720   -7.6030 c3        1 2WY     -0.156400
     27 C24        -7.0370    2.8590   -6.7220 c3        1 2WY      0.128400
     28 O3         -7.2750    2.6080   -5.3280 os        1 2WY     -0.309900
     29 C19        -6.4640    1.7370   -4.6620 ca        1 2WY      0.222100
     30 C21        -6.1500    2.1420   -3.3400 ca        1 2WY     -0.165000
     31 C20        -5.4110    1.3240   -2.5140 ca        1 2WY      0.016000
     32 H1          0.4060   -0.5390    1.0270 ha        1 2WY      0.181000
     33 H2          3.4120   -0.9020    0.8380 ha        1 2WY      0.154000
     34 H3          5.2870   -0.7450   -0.8080 ha        1 2WY      0.153000
     35 H4          4.8800   -0.0850   -3.1580 ha        1 2WY      0.153000
     36 H5          2.5630    0.4500   -3.9700 ha        1 2WY      0.157000
     37 H6         -2.1550   -0.3070   -0.0800 hx        1 2WY      0.126700
     38 H7         -0.6060    2.5030   -2.1250 ha        1 2WY      0.157000
     39 H8         -1.1800    4.8950   -1.7050 ha        1 2WY      0.155000
     40 H9         -2.9650    5.4830   -0.0590 ha        1 2WY      0.155000
     41 H10        -4.1970    3.6750    1.1470 ha        1 2WY      0.155000
     42 H11        -3.6530    1.2810    0.7100 ha        1 2WY      0.157000
     43 H12        -2.3970    0.5190   -2.8900 hn        1 2WY      0.454300
     44 H13        -4.9200   -1.3210   -4.6430 ha        1 2WY      0.183000
     45 H14        -5.2370    1.0530   -7.5800 h1        1 2WY      0.074200
     46 H15        -6.4050   -0.1790   -8.2890 h1        1 2WY      0.074200
     47 H16        -8.3320    1.2300   -7.3240 hc        1 2WY      0.091700
     48 H17        -7.4040    2.0230   -8.6670 hc        1 2WY      0.091700
     49 H18        -5.9820    3.2160   -6.8540 h1        1 2WY      0.079200
     50 H19        -7.7580    3.7030   -6.9200 h1        1 2WY      0.079200
     51 H20        -6.5320    3.1140   -2.9850 ha        1 2WY      0.184000
     52 H21        -5.1860    1.6510   -1.4790 ha        1 2WY      0.167000
     53 H121       -1.8130   -0.9760   -2.5670 hn        1 2WY      0.454300
@<TRIPOS>BOND
     1    1    2 1   
     2    1    9 2   
     3    1   32 1   
     4    2    3 ar  
     5    2    7 ar  
     6    3    4 ar  
     7    3   33 1   
     8    4    5 ar  
     9    4   34 1   
    10    5    6 ar  
    11    5   35 1   
    12    6    7 ar  
    13    6   36 1   
    14    7    8 1   
    15    8    9 1   
    16    9   10 1   
    17   10   11 1   
    18   10   17 1   
    19   10   37 1   
    20   11   12 ar  
    21   11   16 ar  
    22   12   13 ar  
    23   12   38 1   
    24   13   14 ar  
    25   13   39 1   
    26   14   15 ar  
    27   14   40 1   
    28   15   16 ar  
    29   15   41 1   
    30   16   42 1   
    31   17   18 1   
    32   17   43 1   
    33   17   53 1   
    34   18   19 2   
    35   18   20 2   
    36   18   21 1   
    37   21   22 ar  
    38   21   31 ar  
    39   22   23 ar  
    40   22   44 1   
    41   23   24 1   
    42   23   29 ar  
    43   24   25 1   
    44   25   26 1   
    45   25   45 1   
    46   25   46 1   
    47   26   27 1   
    48   26   47 1   
    49   26   48 1   
    50   27   28 1   
    51   27   49 1   
    52   27   50 1   
    53   28   29 1   
    54   29   30 ar  
    55   30   31 ar  
    56   30   51 1   
    57   31   52 1   
@<TRIPOS>SUBSTRUCTURE
     1 2WY         1 TEMP              0 ****  ****    0 ROOT
