@<TRIPOS>MOLECULE
molecule
   60    64     1     0     0
SMALL
bcc


@<TRIPOS>ATOM
      1 Cl1          0.0000     0.0000     0.0000 cl         1 2WZ      -0.070400
      2 C4           1.7360     0.0000     0.0000 ca         1 2WZ      -0.125900
      3 C5           2.4340     0.0000     1.1930 ca         1 2WZ       0.473200
      4 N2           3.7530    -0.0010     1.2060 nb         1 2WZ      -0.731000
      5 C6           4.4590    -0.0020     0.0850 ca         1 2WZ       0.683200
      6 N4           5.8500    -0.0040     0.1460 nv         1 2WZ      -1.000500
      7 C7           3.8220    -0.0030    -1.1530 ca         1 2WZ      -0.054400
      8 F1           4.5450    -0.0050    -2.2950 f          1 2WZ      -0.134900
      9 C2           2.4380    -0.0070    -1.1990 ca         1 2WZ      -0.067300
     10 C1           1.7110    -0.0140    -2.5180 c3         1 2WZ       0.370000
     11 N1           0.6180    -0.9900    -2.4680 n7         1 2WZ      -0.902100
     12 S2           0.8540    -2.5260    -3.0410 s6         1 2WZ       1.360900
     13 O2          -0.4010    -3.1650    -2.8560 o          1 2WZ      -0.626800
     14 O3           1.3960    -2.3370    -4.3400 o          1 2WZ      -0.626800
     15 C23          2.0980    -3.2370    -1.9290 cx         1 2WZ      -0.307900
     16 C24          2.5430    -4.6770    -2.1940 cx         1 2WZ      -0.079400
     17 C25          1.6510    -4.3610    -0.9930 cx         1 2WZ      -0.079400
     18 C3           1.1470     1.3570    -2.7880 cc         1 2WZ      -0.083600
     19 C10          1.7030     2.2460    -3.5860 cd         1 2WZ      -0.108200
     20 S1          -0.3370     1.9710    -2.0860 ss         1 2WZ       0.011500
     21 C8          -0.1750     3.5100    -2.9210 ca         1 2WZ       0.006900
     22 C9           0.9840     3.5050    -3.6980 ca         1 2WZ      -0.090800
     23 C14          1.3050     4.6530    -4.4560 ca         1 2WZ      -0.075000
     24 C13          0.4910     5.7570    -4.4290 ca         1 2WZ      -0.143000
     25 C12         -0.6600     5.7660    -3.6580 ca         1 2WZ      -0.098000
     26 C11         -1.0020     4.6510    -2.9070 cp         1 2WZ      -0.118500
     27 C15         -2.2340     4.6630    -2.0830 cp         1 2WZ       0.477800
     28 C19         -3.0450     5.7970    -2.0680 ca         1 2WZ      -0.212300
     29 N3          -2.5600     3.5920    -1.3700 nb         1 2WZ      -0.696000
     30 C16         -3.6470     3.5620    -0.6260 ca         1 2WZ       0.428200
     31 C17         -4.4930     4.6540    -0.5610 ca         1 2WZ      -0.255300
     32 C18         -4.1920     5.7920    -1.2950 ca         1 2WZ      -0.034300
     33 C20         -5.0940     7.0000    -1.2470 c3         1 2WZ       0.195100
     34 C21         -6.5340     6.5510    -0.9950 c3         1 2WZ      -0.118100
     35 C22         -4.6440     7.9270    -0.1160 c3         1 2WZ      -0.118100
     36 O1          -5.0220     7.6980    -2.4920 oh         1 2WZ      -0.601800
     37 H1           1.8900     0.0020     2.1300 h4         1 2WZ       0.042100
     38 H2           6.3880     0.0530    -0.6960 hn         1 2WZ       0.450300
     39 H3           6.3120    -0.0380     1.0330 hn         1 2WZ       0.450300
     40 H4           2.4000    -0.2830    -3.3090 h1         1 2WZ       0.100700
     41 H5          -0.2830    -0.7150    -2.1310 hn         1 2WZ       0.471800
     42 H6           2.8700    -2.5910    -1.5260 h1         1 2WZ       0.124700
     43 H7           2.0520    -5.1730    -3.0230 hc         1 2WZ       0.087450
     44 H8           3.5780    -4.8970    -1.9630 hc         1 2WZ       0.087450
     45 H9           2.1410    -4.3880    -0.0270 hc         1 2WZ       0.087450
     46 H10          0.6150    -4.6630    -1.0880 hc         1 2WZ       0.087450
     47 H11          2.6270     2.0530    -4.1190 ha         1 2WZ       0.150000
     48 H12          2.2020     4.6620    -5.0640 ha         1 2WZ       0.133000
     49 H13          0.7530     6.6310    -5.0130 ha         1 2WZ       0.134000
     50 H14         -1.2960     6.6430    -3.6450 ha         1 2WZ       0.139000
     51 H15         -2.7800     6.6690    -2.6540 ha         1 2WZ       0.158000
     52 H16         -3.8790     2.6710    -0.0560 h4         1 2WZ       0.024100
     53 H17         -5.3840     4.6190     0.0540 ha         1 2WZ       0.140000
     54 H18         -6.7950     5.7660    -1.6940 hc         1 2WZ       0.046367
     55 H19         -6.6240     6.1780     0.0180 hc         1 2WZ       0.046367
     56 H20         -7.2030     7.3920    -1.1310 hc         1 2WZ       0.046367
     57 H21         -5.3740     8.7170     0.0150 hc         1 2WZ       0.046367
     58 H22         -4.5580     7.3600     0.8030 hc         1 2WZ       0.046367
     59 H23         -3.6830     8.3610    -0.3640 hc         1 2WZ       0.046367
     60 H24         -5.6660     8.3860    -2.5040 ho         1 2WZ       0.408000
@<TRIPOS>BOND
     1    34    33 1   
     2    35    33 1   
     3    33    36 1   
     4    33    32 1   
     5    31    32 ar  
     6    31    30 ar  
     7    32    28 ar  
     8    30    29 ar  
     9    28    27 ar  
    10    29    27 ar  
    11    27    26 1   
    12     3     4 ar  
    13     3     2 ar  
    14     4     5 ar  
    15    26    25 ar  
    16    26    21 ar  
    17     1     2 1   
    18     2     9 ar  
    19    20    21 1   
    20    20    18 1   
    21     5     6 1   
    22     5     7 ar  
    23    25    24 ar  
    24    21    22 ar  
    25     9     7 ar  
    26     9    10 1   
    27     7     8 1   
    28    24    23 ar  
    29    18    10 1   
    30    18    19 2   
    31    22    23 ar  
    32    22    19 1   
    33    10    11 1   
    34    11    12 1   
    35    14    12 2   
    36    17    15 1   
    37    17    16 1   
    38    12    15 1   
    39    12    13 2   
    40    15    16 1   
    41     3    37 1   
    42     6    38 1   
    43     6    39 1   
    44    10    40 1   
    45    11    41 1   
    46    15    42 1   
    47    16    43 1   
    48    16    44 1   
    49    17    45 1   
    50    17    46 1   
    51    19    47 1   
    52    23    48 1   
    53    24    49 1   
    54    25    50 1   
    55    28    51 1   
    56    30    52 1   
    57    31    53 1   
    58    34    54 1   
    59    34    55 1   
    60    34    56 1   
    61    35    57 1   
    62    35    58 1   
    63    35    59 1   
    64    36    60 1   
@<TRIPOS>SUBSTRUCTURE
     1 2WZ         1 TEMP              0 ****  ****    0 ROOT
