@<TRIPOS>MOLECULE
2WZ
   60    64     1     0     0
SMALL
bcc


@<TRIPOS>ATOM
      1 Cl1          0.0000     0.0000     0.0000 cl         1 2WZ       0.049600
      2 C4           1.7360     0.0000     0.0000 ca         1 2WZ      -0.206900
      3 C5           2.4340     0.0000     1.1930 ca         1 2WZ       0.457200
      4 N2           3.7530    -0.0010     1.2060 nb         1 2WZ      -0.627000
      5 C6           4.4590    -0.0020     0.0850 ca         1 2WZ       0.490200
      6 N4           5.8500    -0.0040     0.1460 nv         1 2WZ      -0.515500
      7 C7           3.8220    -0.0030    -1.1530 ca         1 2WZ      -0.084400
      8 F1           4.5450    -0.0050    -2.2950 f          1 2WZ      -0.118900
      9 C2           2.4380    -0.0070    -1.1990 ca         1 2WZ      -0.068300
     10 C1           1.7110    -0.0140    -2.5180 c3         1 2WZ       0.354000
     11 N1           0.6180    -0.9900    -2.4680 n7         1 2WZ      -0.606100
     12 S2           0.8540    -2.5260    -3.0410 s6         1 2WZ       0.984900
     13 O2          -0.4010    -3.1650    -2.8560 o          1 2WZ      -0.577800
     14 O3           1.3960    -2.3370    -4.3400 o          1 2WZ      -0.577800
     15 C23          2.0980    -3.2370    -1.9290 cx         1 2WZ      -0.133900
     16 C24          2.5430    -4.6770    -2.1940 cx         1 2WZ      -0.014400
     17 C25          1.6510    -4.3610    -0.9930 cx         1 2WZ      -0.014400
     18 C3           1.1470     1.3570    -2.7880 cc         1 2WZ      -0.037600
     19 C10          1.7030     2.2460    -3.5860 cd         1 2WZ      -0.067200
     20 S1          -0.3370     1.9710    -2.0860 ss         1 2WZ      -0.170500
     21 C8          -0.1750     3.5100    -2.9210 ca         1 2WZ       0.068900
     22 C9           0.9840     3.5050    -3.6980 ca         1 2WZ      -0.090800
     23 C14          1.3050     4.6530    -4.4560 ca         1 2WZ      -0.047000
     24 C13          0.4910     5.7570    -4.4290 ca         1 2WZ      -0.112000
     25 C12         -0.6600     5.7660    -3.6580 ca         1 2WZ      -0.082000
     26 C11         -1.0020     4.6510    -2.9070 cp         1 2WZ      -0.109500
     27 C15         -2.2340     4.6630    -2.0830 cp         1 2WZ       0.428800
     28 C19         -3.0450     5.7970    -2.0680 ca         1 2WZ      -0.186300
     29 N3          -2.5600     3.5920    -1.3700 nb         1 2WZ      -0.562000
     30 C16         -3.6470     3.5620    -0.6260 ca         1 2WZ       0.407200
     31 C17         -4.4930     4.6540    -0.5610 ca         1 2WZ      -0.226300
     32 C18         -4.1920     5.7920    -1.2950 ca         1 2WZ      -0.055300
     33 C20         -5.0940     7.0000    -1.2470 c3         1 2WZ       0.222100
     34 C21         -6.5340     6.5510    -0.9950 c3         1 2WZ      -0.031100
     35 C22         -4.6440     7.9270    -0.1160 c3         1 2WZ      -0.031100
     36 O1          -5.0220     7.6980    -2.4920 oh         1 2WZ      -0.587800
     37 H1           1.8900     0.0020     2.1300 h4         1 2WZ      -0.009900
     38 H2           6.3880     0.0530    -0.6960 hn         1 2WZ       0.277800
     39 H3           6.3120    -0.0380     1.0330 hn         1 2WZ       0.277800
     40 H4           2.4000    -0.2830    -3.3090 h1         1 2WZ       0.066700
     41 H5          -0.2830    -0.7150    -2.1310 hn         1 2WZ       0.382800
     42 H6           2.8700    -2.5910    -1.5260 h1         1 2WZ       0.099700
     43 H7           2.0520    -5.1730    -3.0230 hc         1 2WZ       0.052700
     44 H8           3.5780    -4.8970    -1.9630 hc         1 2WZ       0.052700
     45 H9           2.1410    -4.3880    -0.0270 hc         1 2WZ       0.052700
     46 H10          0.6150    -4.6630    -1.0880 hc         1 2WZ       0.052700
     47 H11          2.6270     2.0530    -4.1190 ha         1 2WZ       0.124000
     48 H12          2.2020     4.6620    -5.0640 ha         1 2WZ       0.104000
     49 H13          0.7530     6.6310    -5.0130 ha         1 2WZ       0.106000
     50 H14         -1.2960     6.6430    -3.6450 ha         1 2WZ       0.116000
     51 H15         -2.7800     6.6690    -2.6540 ha         1 2WZ       0.137000
     52 H16         -3.8790     2.6710    -0.0560 h4         1 2WZ      -0.018900
     53 H17         -5.3840     4.6190     0.0540 ha         1 2WZ       0.121000
     54 H18         -6.7950     5.7660    -1.6940 hc         1 2WZ       0.014700
     55 H19         -6.6240     6.1780     0.0180 hc         1 2WZ       0.014700
     56 H20         -7.2030     7.3920    -1.1310 hc         1 2WZ       0.014700
     57 H21         -5.3740     8.7170     0.0150 hc         1 2WZ       0.014700
     58 H22         -4.5580     7.3600     0.8030 hc         1 2WZ       0.014700
     59 H23         -3.6830     8.3610    -0.3640 hc         1 2WZ       0.014700
     60 H24         -5.6660     8.3860    -2.5040 ho         1 2WZ       0.397000
@<TRIPOS>BOND
     1     1     2 1   
     2     2     3 ar  
     3     2     9 ar  
     4     3     4 ar  
     5     3    37 1   
     6     4     5 ar  
     7     5     6 1   
     8     5     7 ar  
     9     6    38 1   
    10     6    39 1   
    11     7     8 1   
    12     7     9 ar  
    13     9    10 1   
    14    10    11 1   
    15    10    18 1   
    16    10    40 1   
    17    11    12 1   
    18    11    41 1   
    19    12    13 2   
    20    12    14 2   
    21    12    15 1   
    22    15    16 1   
    23    15    17 1   
    24    15    42 1   
    25    16    17 1   
    26    16    43 1   
    27    16    44 1   
    28    17    45 1   
    29    17    46 1   
    30    18    19 2   
    31    18    20 1   
    32    19    22 1   
    33    19    47 1   
    34    20    21 1   
    35    21    22 ar  
    36    21    26 ar  
    37    22    23 ar  
    38    23    24 ar  
    39    23    48 1   
    40    24    25 ar  
    41    24    49 1   
    42    25    26 ar  
    43    25    50 1   
    44    26    27 1   
    45    27    28 ar  
    46    27    29 ar  
    47    28    32 ar  
    48    28    51 1   
    49    29    30 ar  
    50    30    31 ar  
    51    30    52 1   
    52    31    32 ar  
    53    31    53 1   
    54    32    33 1   
    55    33    34 1   
    56    33    35 1   
    57    33    36 1   
    58    34    54 1   
    59    34    55 1   
    60    34    56 1   
    61    35    57 1   
    62    35    58 1   
    63    35    59 1   
    64    36    60 1   
@<TRIPOS>SUBSTRUCTURE
     1 2WZ         1 TEMP              0 ****  ****    0 ROOT
