@<TRIPOS>MOLECULE
molecule
   27    27     1     0     0
SMALL
bcc


@<TRIPOS>ATOM
      1 C6           0.0000     0.0000     0.0000 c3         1 2X0      -0.063100
      2 C8           1.5070     0.0000     0.0000 ca         1 2X0      -0.056300
      3 C3          -2.0410     1.4420    -0.0010 c3         1 2X0      -0.044700
      4 P11         -2.6490     0.5820     1.4880 p5         1 2X0       0.900700
      5 O12         -2.0590     1.2060     2.6930 o          1 2X0      -0.832500
      6 O13         -2.2230    -0.9690     1.4220 o          1 2X0      -0.832500
      7 N10         -2.5300     2.8270    -0.0010 nz         1 2X0      -0.841600
      8 C1          -0.5110     1.4420    -0.0010 c3         1 2X0      -0.058400
      9 C17          2.1970     0.0000     1.1970 ca         1 2X0      -0.125500
     10 C18          3.5800     0.0000     1.1970 ca         1 2X0      -0.140000
     11 C19          4.2710     0.0010     0.0000 ca         1 2X0      -0.152000
     12 C20          3.5800     0.0010    -1.1970 ca         1 2X0      -0.140000
     13 C21          2.1980    -0.0050    -1.1970 ca         1 2X0      -0.125500
     14 H1          -0.3610    -0.5110    -0.8840 hc         1 2X0       0.107200
     15 H2          -0.3610    -0.5100     0.8850 hc         1 2X0       0.107200
     16 H3          -2.4020     0.9310    -0.8850 hx         1 2X0       0.082700
     17 H6          -2.8910     2.4050    -0.8330 hn         1 2X0       0.456133
     18 H7          -1.8240     3.5190    -0.1560 hn         1 2X0       0.456133
     19 H9          -0.1500     1.9530    -0.8850 hc         1 2X0       0.029200
     20 H10         -0.1500     1.9530     0.8840 hc         1 2X0       0.029200
     21 H11          1.6550    -0.0000     2.1350 ha         1 2X0       0.141000
     22 H12          4.1220     0.0000     2.1350 ha         1 2X0       0.115000
     23 H13          5.3540     0.0030     0.0000 ha         1 2X0       0.110000
     24 H14          4.1210    -0.0010    -2.1350 ha         1 2X0       0.115000
     25 H15          1.6560    -0.0050    -2.1350 ha         1 2X0       0.141000
     26 O11         -4.2530     0.6960     1.5550 o          1 2X0      -0.832500
     27 H103        -3.2190     3.0260     0.6980 hn         1 2X0       0.456133
@<TRIPOS>BOND
     1    26     4 1   
     2     6     4 1   
     3     4     3 1   
     4     4     5 1   
     5     3     7 1   
     6     3     8 1   
     7    13    12 ar  
     8    13     2 ar  
     9    12    11 ar  
    10     1     8 1   
    11     1     2 1   
    12     2     9 ar  
    13    11    10 ar  
    14     9    10 ar  
    15     1    14 1   
    16     1    15 1   
    17     3    16 1   
    18     7    17 1   
    19     7    18 1   
    20     8    19 1   
    21     8    20 1   
    22     9    21 1   
    23    10    22 1   
    24    11    23 1   
    25    12    24 1   
    26    13    25 1   
    27    27     7 1   
@<TRIPOS>SUBSTRUCTURE
     1 2X0         1 TEMP              0 ****  ****    0 ROOT
