@<TRIPOS>MOLECULE
2X1
   40    41     1     0     0
SMALL
bcc


@<TRIPOS>ATOM
      1 C1           0.0000     0.0000     0.0000 c          1 2X1       0.563100
      2 N3           1.3480     0.0000     0.0000 ns         1 2X1      -0.042100
      3 N4          -0.6730     0.0000     1.1660 ns         1 2X1      -0.038100
      4 C5          -4.8300     0.2840     1.1720 ca         1 2X1      -0.243900
      5 N6          -7.0400    -0.2280     0.1810 nz         1 2X1       0.191400
      6 O7          -0.6070     0.0040    -1.0530 o          1 2X1      -0.679100
      7 C8           2.0470     0.0970    -1.2080 ca         1 2X1      -0.061400
      8 C9          -4.0860     0.9050     2.1760 ca         1 2X1      -0.046500
      9 C10         -4.1800    -0.4380     0.1700 ca         1 2X1      -0.046500
     10 N11         -6.9130     1.0550     2.1130 n2         1 2X1      -0.480100
     11 C12         -2.0660     0.0940     1.1680 ca         1 2X1      -0.024400
     12 C13          3.2430     0.8010    -1.2660 ca         1 2X1      -0.109000
     13 C14         -2.7120     0.8100     2.1720 ca         1 2X1      -0.092500
     14 C15         -2.8060    -0.5300     0.1700 ca         1 2X1      -0.092500
     15 C16          3.9320     0.8940    -2.4600 ca         1 2X1      -0.188300
     16 C18          2.2430    -0.4200    -3.5420 ca         1 2X1      -0.054000
     17 C19          1.5510    -0.5160    -2.3520 ca         1 2X1      -0.053000
     18 C20          5.2290     1.6570    -2.5240 c3         1 2X1       0.038100
     19 C21          3.4310     0.2860    -3.5970 ca         1 2X1      -0.076000
     20 H1           1.8480    -0.0950     0.8620 hn         1 2X1       0.172500
     21 H2          -0.1770    -0.0870     2.0310 hn         1 2X1       0.178500
     22 H3          -6.7720     0.1410    -0.7090 hn         1 2X1       0.222800
     23 H4          -8.0150    -0.0600     0.3320 hn         1 2X1       0.222800
     24 H5          -4.5880     1.4620     2.9570 ha         1 2X1       0.101500
     25 H6          -4.7560    -0.9240    -0.6080 ha         1 2X1       0.101500
     26 H7          -6.3810     1.5010     2.8340 hn         1 2X1       0.379400
     27 H8           3.6130     1.3140    -0.3870 ha         1 2X1       0.112000
     28 H9          -2.1340     1.2920     2.9510 ha         1 2X1       0.144500
     29 H10         -2.3010    -1.0900    -0.6070 ha         1 2X1       0.144500
     30 H11          6.3290    -0.0190    -2.8760 hn         1 2X1       0.224133
     31 H12          7.2110     1.2430    -2.3280 hn         1 2X1       0.224133
     32 H14          1.8540    -0.8960    -4.4340 ha         1 2X1       0.131000
     33 H15          0.6200    -1.0690    -2.3090 ha         1 2X1       0.157000
     34 H16          5.2140     2.4560    -1.7930 hx         1 2X1       0.084700
     35 H17          5.3520     2.0760    -3.5150 hx         1 2X1       0.084700
     36 H18          3.9730     0.3610    -4.5330 ha         1 2X1       0.114000
     37 N17          6.3460     0.7480    -2.2340 nz         1 2X1       0.077400
     38 H63         -6.8710    -1.2150     0.1980 hn         1 2X1       0.222800
     39 H173         6.2580     0.3990    -1.3000 hn         1 2X1       0.224133
     40 C2          -6.3060     0.3850     1.1730 ce         1 2X1       0.210800
@<TRIPOS>BOND
     1     1     2 1   
     2     1     3 1   
     3     1     6 2   
     4     2     7 1   
     5     2    20 1   
     6     3    11 1   
     7     3    21 1   
     8     4     8 ar  
     9     4     9 ar  
    10     4    40 1   
    11     5    22 1   
    12     5    23 1   
    13     5    38 1   
    14     5    40 1   
    15     7    12 ar  
    16     7    17 ar  
    17     8    13 ar  
    18     8    24 1   
    19     9    14 ar  
    20     9    25 1   
    21    10    26 1   
    22    10    40 2   
    23    11    13 ar  
    24    11    14 ar  
    25    12    15 ar  
    26    12    27 1   
    27    13    28 1   
    28    14    29 1   
    29    15    18 1   
    30    15    19 ar  
    31    16    17 ar  
    32    16    19 ar  
    33    16    32 1   
    34    17    33 1   
    35    18    34 1   
    36    18    35 1   
    37    18    37 1   
    38    19    36 1   
    39    30    37 1   
    40    31    37 1   
    41    37    39 1   
@<TRIPOS>SUBSTRUCTURE
     1 2X1         1 TEMP              0 ****  ****    0 ROOT
