@<TRIPOS>MOLECULE
molecule
   40    41     1     0     0
SMALL
bcc


@<TRIPOS>ATOM
      1 C1           0.0000     0.0000     0.0000 c          1 2X1       0.792100
      2 N3           1.3480     0.0000     0.0000 ns         1 2X1      -0.486100
      3 N4          -0.6730     0.0000     1.1660 ns         1 2X1      -0.483100
      4 C5          -4.8300     0.2840     1.1720 ca         1 2X1      -0.210900
      5 N6          -7.0400    -0.2280     0.1810 nz         1 2X1      -0.801600
      6 O7          -0.6070     0.0040    -1.0530 o          1 2X1      -0.631100
      7 C8           2.0470     0.0970    -1.2080 ca         1 2X1       0.084600
      8 C9          -4.0860     0.9050     2.1760 ca         1 2X1      -0.062000
      9 C10         -4.1800    -0.4380     0.1700 ca         1 2X1      -0.062000
     10 N11         -6.9130     1.0550     2.1130 n2         1 2X1      -0.679100
     11 C12         -2.0660     0.0940     1.1680 ca         1 2X1       0.125600
     12 C13          3.2430     0.8010    -1.2660 ca         1 2X1      -0.141000
     13 C14         -2.7120     0.8100     2.1720 ca         1 2X1      -0.134500
     14 C15         -2.8060    -0.5300     0.1700 ca         1 2X1      -0.134500
     15 C16          3.9320     0.8940    -2.4600 ca         1 2X1      -0.174300
     16 C18          2.2430    -0.4200    -3.5420 ca         1 2X1      -0.093000
     17 C19          1.5510    -0.5160    -2.3520 ca         1 2X1      -0.081000
     18 C20          5.2290     1.6570    -2.5240 c3         1 2X1       0.161100
     19 C21          3.4310     0.2860    -3.5970 ca         1 2X1      -0.111000
     20 H1           1.8480    -0.0970     0.8610 hn         1 2X1       0.332500
     21 H2          -0.1770    -0.0920     2.0300 hn         1 2X1       0.339500
     22 H3          -6.8670    -1.2140     0.1990 hn         1 2X1       0.466133
     23 H4          -8.0160    -0.0590     0.3210 hn         1 2X1       0.466133
     24 H5          -4.5880     1.4620     2.9570 ha         1 2X1       0.146000
     25 H6          -4.7560    -0.9240    -0.6080 ha         1 2X1       0.146000
     26 H7          -7.9110     1.1240     2.1140 hn         1 2X1       0.438400
     27 H8           3.6130     1.3140    -0.3870 ha         1 2X1       0.138000
     28 H9          -2.1340     1.2920     2.9510 ha         1 2X1       0.174500
     29 H10         -2.3010    -1.0900    -0.6070 ha         1 2X1       0.174500
     30 H11          7.2110     1.2430    -2.3280 hn         1 2X1       0.456467
     31 H12          6.2600     0.4020    -1.2990 hn         1 2X1       0.456467
     32 H14          1.8540    -0.8960    -4.4340 ha         1 2X1       0.167000
     33 H15          0.6200    -1.0690    -2.3090 ha         1 2X1       0.185000
     34 H16          5.2140     2.4560    -1.7930 hx         1 2X1       0.116200
     35 H17          5.3520     2.0760    -3.5150 hx         1 2X1       0.116200
     36 H18          3.9730     0.3610    -4.5330 ha         1 2X1       0.144000
     37 N17          6.3460     0.7480    -2.2340 nz         1 2X1      -0.810600
     38 H63         -6.7790     0.1410    -0.7120 hn         1 2X1       0.466133
     39 H173         6.3340    -0.0140    -2.8820 hn         1 2X1       0.456467
     40 C2          -6.3060     0.3850     1.1730 ce         1 2X1       0.542800
@<TRIPOS>BOND
     1    10    40 2
     2    40     5 1
     3    40     4 1
     4     9     4 ar
     5     9    14 ar
     6     4     8 ar
     7    14    11 ar
     8     6     1 2
     9     8    13 ar
    10    11    13 ar
    11    11     3 1
    12     1     3 1
    13     1     2 1
    14    17    16 ar
    15    17     7 ar
    16    16    19 ar
    17     2     7 1
    18     7    12 ar
    19    19    15 ar
    20    12    15 ar
    21    15    18 1
    22    18    37 1
    23     2    20 1
    24     3    21 1
    25     5    22 1
    26     5    23 1
    27     8    24 1
    28     9    25 1
    29    10    26 1
    30    12    27 1
    31    13    28 1
    32    14    29 1
    33    37    30 1
    34    37    31 1
    35    16    32 1
    36    17    33 1
    37    18    34 1
    38    18    35 1
    39    19    36 1
    40    38     5 1
    41    39    37 1
@<TRIPOS>SUBSTRUCTURE
     1 2X1         1 TEMP              0 ****  ****    0 ROOT
