@<TRIPOS>MOLECULE
molecule
   45    48     1     0     0
SMALL
bcc


@<TRIPOS>ATOM
      1 C2           0.0000     0.0000     0.0000 cc         1 2X3       0.153800
      2 C4           2.0170     0.0000     1.1390 cc         1 2X3       0.443600
      3 C5           1.3330    -0.0840     2.3540 cd         1 2X3      -0.231200
      4 C6          -0.0640    -0.0770     2.3450 c          1 2X3       0.737700
      5 C8           3.5480    -0.4320     2.7550 c3         1 2X3       0.411700
      6 O6          -0.6920    -0.1200     3.3920 o          1 2X3      -0.765500
      7 OBD         10.7110    -7.5110    -1.3410 o          1 2X3      -0.637167
      8 PBC         11.5980    -6.7330    -0.2450 p5         1 2X3       1.300900
      9 OBE         12.8060    -5.9640    -0.9830 o          1 2X3      -0.637167
     10 OBF         12.1520    -7.7080     0.7220 o          1 2X3      -0.637167
     11 OAZ         10.6760    -5.6670     0.5320 os         1 2X3      -0.716800
     12 PAY          9.6160    -5.7740     1.7380 p5         1 2X3       1.558800
     13 OBA         10.4030    -5.8400     3.1410 o          1 2X3      -0.738500
     14 OBB          8.8020    -6.9990     1.5710 o          1 2X3      -0.738500
     15 OAV          8.6540    -4.4840     1.7230 os         1 2X3      -0.724800
     16 PAU          7.2490    -4.1280     2.4250 p5         1 2X3       1.437800
     17 OAW          6.0600    -4.9100     1.6730 o          1 2X3      -0.835000
     18 OAX          7.2890    -4.5400     3.8460 o          1 2X3      -0.835000
     19 CAR          5.8760    -1.8980     2.9550 c3         1 2X3       0.229400
     20 CAP          5.9320    -0.3960     2.6710 c3         1 2X3      -0.014900
     21 OAO          5.7030    -0.1330     1.2690 os         1 2X3      -0.277600
     22 CAN          4.6410     0.8390     1.1280 c3         1 2X3       0.281300
     23 N9           3.3460     0.1880     1.4220 nh         1 2X3      -0.744400
     24 N3           1.3140     0.0000     0.0000 nc         1 2X3      -0.688300
     25 N2          -0.6710     0.0090    -1.1970 nz         1 2X3      -0.710600
     26 N1          -0.7100    -0.0150     1.1610 ns         1 2X3      -0.477400
     27 N7           2.2670    -0.2300     3.4150 nu         1 2X3      -0.807000
     28 CAL          4.7360     0.3490     3.3760 c3         1 2X3       0.007800
     29 OAS          4.7710     0.4910     4.7980 oh         1 2X3      -0.550800
     30 CAM          4.7760     1.6440     2.4790 c3         1 2X3      -0.026900
     31 OAQ          6.0220     2.3380     2.5790 oh         1 2X3      -0.565800
     32 H2           3.7840    -1.4850     2.6590 h2         1 2X3       0.095700
     33 H7           4.9050    -2.2950     2.6880 h1         1 2X3       0.040700
     34 H8           5.9910    -2.0290     4.0240 h1         1 2X3       0.040700
     35 H9           6.8780     0.0250     2.9900 h1         1 2X3       0.116700
     36 H10          5.2330     0.2720     1.8360 h2         1 2X3       0.324700
     37 H11          0.1200     0.4900    -1.5780 hn         1 2X3       0.373133
     38 H12         -0.8190    -0.8960    -1.5980 hn         1 2X3       0.373133
     39 H13          2.0600    -0.4220     4.3750 hn         1 2X3       0.445800
     40 H15          4.5430    -0.3300     5.2020 ho         1 2X3       0.417000
     41 H16          3.9250     2.2900     2.6590 h1         1 2X3       0.084700
     42 H17          5.2860     2.8980     2.7640 ho         1 2X3       0.415000
     43 H18         -1.7090     0.0460     1.1380 hn         1 2X3       0.278500
     44 H23         -1.5150     0.5470    -1.1940 hn         1 2X3       0.373133
     45 OAT          6.9900    -2.5420     2.3330 os         1 2X3      -0.585200
@<TRIPOS>BOND
     1     1    25 1   
     2     2    24 1   
     3     3     2 2   
     4     3     4 1   
     5     4    26 1   
     6     5    27 1   
     7     5    23 1   
     8     5    28 1   
     9     5    32 1   
    10     6     4 2   
    11     8     7 1   
    12     8    10 1   
    13     8    11 1   
    14     9     8 1   
    15    11    12 1   
    16    12    13 1   
    17    12    15 1   
    18    12    14 1   
    19    16    15 1   
    20    16    45 1   
    21    16    18 1   
    22    17    16 1   
    23    45    19 1   
    24    19    20 1   
    25    19    33 1   
    26    19    34 1   
    27    20    21 1   
    28    20    28 1   
    29    20    35 1   
    30    21    22 1   
    31    22    30 1   
    32    22    36 1   
    33    23     2 1   
    34    23    22 1   
    35    24     1 2   
    36    25    37 1   
    37    25    38 1   
    38    26     1 1   
    39    27     3 1   
    40    27    39 1   
    41    28    29 1   
    42    28    30 1   
    43    29    40 1   
    44    30    31 1   
    45    30    41 1   
    46    31    42 1   
    47    26    43 1   
    48    44    25 1   
@<TRIPOS>SUBSTRUCTURE
     1 2X3         1 TEMP              0 ****  ****    0 ROOT
