@<TRIPOS>MOLECULE
molecule
   45    49     1     0     0
SMALL
bcc


@<TRIPOS>ATOM
      1 C1           0.0000     0.0000     0.0000 c3         1 2X4       0.135400
      2 O2           1.4290     0.0000     0.0000 os         1 2X4      -0.396600
      3 C3           2.0140     0.0000     1.3040 c3         1 2X4       0.143400
      4 C4           1.5870    -1.2630     2.0530 c3         1 2X4       0.120100
      5 C5           0.0520    -1.3080     2.1240 c3         1 2X4      -0.094700
      6 C6          -0.5100    -1.2620     0.7010 c3         1 2X4      -0.126400
      7 O7           2.1130    -1.2350     3.3810 os         1 2X4      -0.310900
      8 C8           1.6550    -2.1560     4.2690 ca         1 2X4       0.186100
      9 C9           0.4690    -2.8420     4.0550 ca         1 2X4      -0.193300
     10 C10         -0.3530    -2.6100     2.8030 c3         1 2X4       0.157500
     11 C11          2.4040    -2.4030     5.4160 ca         1 2X4      -0.140000
     12 C12          1.9720    -3.3260     6.3440 ca         1 2X4      -0.059000
     13 C13          0.7800    -4.0160     6.1330 cp         1 2X4      -0.052000
     14 C14          0.0320    -3.7680     4.9840 ca         1 2X4      -0.095000
     15 N15         -0.2330    -3.7460     1.8790 n2         1 2X4      -0.535900
     16 C16         -1.3230    -4.4500     1.9590 c2         1 2X4       0.576500
     17 O17         -2.2210    -3.9650     2.8410 os         1 2X4      -0.419400
     18 C18         -1.8580    -2.5980     3.1330 c3         1 2X4       0.124400
     19 C19          0.3070    -5.0090     7.1280 cp         1 2X4      -0.158300
     20 C20          1.0510    -5.2650     8.2830 ca         1 2X4      -0.078000
     21 C21          0.5670    -6.2030     9.1810 ca         1 2X4      -0.088900
     22 C22         -0.6250    -6.8490     8.9080 ca         1 2X4       0.438200
     23 N23         -1.3050    -6.5870     7.8080 nb         1 2X4      -0.671000
     24 C24         -0.8870    -5.7000     6.9280 ca         1 2X4       0.414200
     25 N25         -1.5400    -5.5820     1.2120 nz         1 2X4      -0.715600
     26 Cl1          1.4470    -6.5630    10.6340 cl         1 2X4      -0.067400
     27 H1          -0.3600     0.8750     0.5270 h1         1 2X4       0.064200
     28 H2          -0.3600     0.0140    -1.0220 h1         1 2X4       0.064200
     29 H3           1.6770     0.8730     1.8500 h1         1 2X4       0.075700
     30 H4           3.0930     0.0180     1.2140 h1         1 2X4       0.075700
     31 H5           1.9550    -2.1390     1.5330 h1         1 2X4       0.075700
     32 H6          -0.3160    -0.4640     2.6950 hc         1 2X4       0.094700
     33 H7          -0.1350    -2.1230     0.1620 hc         1 2X4       0.056700
     34 H8          -1.5890    -1.2000     0.7660 hc         1 2X4       0.056700
     35 H9           3.3310    -1.8670     5.5810 ha         1 2X4       0.167000
     36 H10          2.5580    -3.5150     7.2350 ha         1 2X4       0.157000
     37 H11         -0.8950    -4.3030     4.8180 ha         1 2X4       0.129000
     38 H12         -2.3910    -1.9110     2.4860 h1         1 2X4       0.108200
     39 H13         -2.0230    -2.3690     4.1780 h1         1 2X4       0.108200
     40 H14          1.9820    -4.7440     8.4710 ha         1 2X4       0.158000
     41 H15         -1.0060    -7.5850     9.6070 h4         1 2X4       0.048100
     42 H16         -1.4730    -5.5120     6.0360 h4         1 2X4       0.012100
     43 H17         -1.8980    -5.3250     0.3130 hn         1 2X4       0.484800
     44 H18         -0.6780    -6.0770     1.0990 hn         1 2X4       0.484800
     45 H253        -2.2030    -6.1680     1.6800 hn         1 2X4       0.484800
@<TRIPOS>BOND
     1     1     6 1   
     2     1     2 1   
     3    18    17 1   
     4    18    10 1   
     5     6     5 1   
     6     5    10 1   
     7     5     4 1   
     8     2     3 1   
     9     3     4 1   
    10    17    16 1   
    11     7     4 1   
    12     7     8 1   
    13    10     9 1   
    14    10    15 1   
    15     8     9 ar  
    16     8    11 ar  
    17     9    14 ar  
    18    11    12 ar  
    19    14    13 ar  
    20    24    23 ar  
    21    24    19 ar  
    22    12    13 ar  
    23    13    19 1   
    24    16    15 2   
    25    16    25 1   
    26    23    22 ar  
    27    19    20 ar  
    28    22    21 ar  
    29    20    21 ar  
    30    21    26 1   
    31     1    27 1   
    32     1    28 1   
    33     3    29 1   
    34     3    30 1   
    35     4    31 1   
    36     5    32 1   
    37     6    33 1   
    38     6    34 1   
    39    11    35 1   
    40    12    36 1   
    41    14    37 1   
    42    18    38 1   
    43    18    39 1   
    44    20    40 1   
    45    22    41 1   
    46    24    42 1   
    47    25    43 1   
    48    25    44 1   
    49    45    25 1   
@<TRIPOS>SUBSTRUCTURE
     1 2X4         1 TEMP              0 ****  ****    0 ROOT
