@<TRIPOS>MOLECULE
2X4
   45    49     1     0     0
SMALL
bcc


@<TRIPOS>ATOM
      1 C1           0.0000     0.0000     0.0000 c3         1 2X4       0.215400
      2 O2           1.4290     0.0000     0.0000 os         1 2X4      -0.385600
      3 C3           2.0140     0.0000     1.3040 c3         1 2X4       0.212400
      4 C4           1.5870    -1.2630     2.0530 c3         1 2X4       0.147100
      5 C5           0.0520    -1.3080     2.1240 c3         1 2X4      -0.083700
      6 C6          -0.5100    -1.2620     0.7010 c3         1 2X4      -0.078400
      7 O7           2.1130    -1.2350     3.3810 os         1 2X4      -0.284900
      8 C8           1.6550    -2.1560     4.2690 ca         1 2X4       0.197100
      9 C9           0.4690    -2.8420     4.0550 ca         1 2X4      -0.216300
     10 C10         -0.3530    -2.6100     2.8030 c3         1 2X4       0.155500
     11 C11          2.4040    -2.4030     5.4160 ca         1 2X4      -0.118000
     12 C12          1.9720    -3.3260     6.3440 ca         1 2X4      -0.031000
     13 C13          0.7800    -4.0160     6.1330 cp         1 2X4      -0.044000
     14 C14          0.0320    -3.7680     4.9840 ca         1 2X4      -0.081000
     15 N15         -0.2330    -3.7460     1.8790 n2         1 2X4      -0.430900
     16 C16         -1.3230    -4.4500     1.9590 c2         1 2X4       0.326500
     17 O17         -2.2210    -3.9650     2.8410 os         1 2X4      -0.386400
     18 C18         -1.8580    -2.5980     3.1330 c3         1 2X4       0.197400
     19 C19          0.3070    -5.0090     7.1280 cp         1 2X4      -0.150300
     20 C20          1.0510    -5.2650     8.2830 ca         1 2X4      -0.061000
     21 C21          0.5670    -6.2030     9.1810 ca         1 2X4      -0.155900
     22 C22         -0.6250    -6.8490     8.9080 ca         1 2X4       0.418200
     23 N23         -1.3050    -6.5870     7.8080 nb         1 2X4      -0.563000
     24 C24         -0.8870    -5.7000     6.9280 ca         1 2X4       0.391200
     25 N25         -1.5400    -5.5820     1.2120 nz         1 2X4       0.241400
     26 Cl1          1.4470    -6.5630    10.6340 cl         1 2X4       0.028600
     27 H1          -0.3600     0.8750     0.5270 h1         1 2X4       0.021700
     28 H2          -0.3600     0.0140    -1.0220 h1         1 2X4       0.021700
     29 H3           1.6770     0.8730     1.8500 h1         1 2X4       0.030700
     30 H4           3.0930     0.0180     1.2140 h1         1 2X4       0.030700
     31 H5           1.9550    -2.1390     1.5330 h1         1 2X4       0.040700
     32 H6          -0.3160    -0.4640     2.6950 hc         1 2X4       0.069700
     33 H7          -0.1350    -2.1230     0.1620 hc         1 2X4       0.028200
     34 H8          -1.5890    -1.2000     0.7660 hc         1 2X4       0.028200
     35 H9           3.3310    -1.8670     5.5810 ha         1 2X4       0.134000
     36 H10          2.5580    -3.5150     7.2350 ha         1 2X4       0.125000
     37 H11         -0.8950    -4.3030     4.8180 ha         1 2X4       0.111000
     38 H12         -2.3910    -1.9110     2.4860 h1         1 2X4       0.063700
     39 H13         -2.0230    -2.3690     4.1780 h1         1 2X4       0.063700
     40 H14          1.9820    -4.7440     8.4710 ha         1 2X4       0.130000
     41 H15         -1.0060    -7.5850     9.6070 h4         1 2X4      -0.000900
     42 H16         -1.4730    -5.5120     6.0360 h4         1 2X4      -0.029900
     43 H17         -1.8980    -5.3250     0.3130 hn         1 2X4       0.223800
     44 H18         -0.6780    -6.0770     1.0990 hn         1 2X4       0.223800
     45 H253        -2.2030    -6.1680     1.6800 hn         1 2X4       0.223800
@<TRIPOS>BOND
     1     1     2 1   
     2     1     6 1   
     3     1    27 1   
     4     1    28 1   
     5     2     3 1   
     6     3     4 1   
     7     3    29 1   
     8     3    30 1   
     9     4     5 1   
    10     4     7 1   
    11     4    31 1   
    12     5     6 1   
    13     5    10 1   
    14     5    32 1   
    15     6    33 1   
    16     6    34 1   
    17     7     8 1   
    18     8     9 ar  
    19     8    11 ar  
    20     9    10 1   
    21     9    14 ar  
    22    10    15 1   
    23    10    18 1   
    24    11    12 ar  
    25    11    35 1   
    26    12    13 ar  
    27    12    36 1   
    28    13    14 ar  
    29    13    19 1   
    30    14    37 1   
    31    15    16 2   
    32    16    17 1   
    33    16    25 1   
    34    17    18 1   
    35    18    38 1   
    36    18    39 1   
    37    19    20 ar  
    38    19    24 ar  
    39    20    21 ar  
    40    20    40 1   
    41    21    22 ar  
    42    21    26 1   
    43    22    23 ar  
    44    22    41 1   
    45    23    24 ar  
    46    24    42 1   
    47    25    43 1   
    48    25    44 1   
    49    25    45 1   
@<TRIPOS>SUBSTRUCTURE
     1 2X4         1 TEMP              0 ****  ****    0 ROOT
