@<TRIPOS>MOLECULE
molecule
   45    49     1     0     0
SMALL
bcc


@<TRIPOS>ATOM
      1 C1           0.0000     0.0000     0.0000 c3         1 2X5       0.135400
      2 O2           1.4280     0.0000     0.0000 os         1 2X5      -0.395600
      3 C3           2.0140     0.0000     1.3030 c3         1 2X5       0.144400
      4 C4           1.5870     1.2640     2.0520 c3         1 2X5       0.122100
      5 C5           0.0520     1.3110     2.1220 c3         1 2X5      -0.107700
      6 C6          -0.5100     1.2630     0.6990 c3         1 2X5      -0.127400
      7 O7           2.0950     1.2250     3.3880 os         1 2X5      -0.309900
      8 C8           1.6290     2.1440     4.2740 ca         1 2X5       0.176100
      9 C9           0.4510     2.8420     4.0470 ca         1 2X5      -0.183300
     10 C10         -0.3500     2.6140     2.7980 c3         1 2X5       0.160500
     11 C11          2.3610     2.3780     5.4350 ca         1 2X5      -0.138000
     12 C12          1.9220     3.2980     6.3630 ca         1 2X5      -0.060000
     13 C13          0.7380     3.9960     6.1380 cp         1 2X5      -0.052000
     14 C14          0.0070     3.7640     4.9760 ca         1 2X5      -0.076000
     15 N15         -1.7910     2.6350     3.0860 n2         1 2X5      -0.533900
     16 C16         -2.3680     3.3940     2.2040 c2         1 2X5       0.576500
     17 O17         -1.5190     3.9220     1.2990 os         1 2X5      -0.417400
     18 C18         -0.1810     3.7990     1.8270 c3         1 2X5       0.118400
     19 C19          0.2570     4.9870     7.1330 cp         1 2X5      -0.155300
     20 C20          0.9830     5.2280     8.3010 ca         1 2X5      -0.078000
     21 C21          0.4930     6.1620     9.2000 ca         1 2X5      -0.087900
     22 C22         -0.6900     6.8200     8.9120 ca         1 2X5       0.438200
     23 N23         -1.3550     6.5700     7.8000 nb         1 2X5      -0.673000
     24 C24         -0.9230     5.6950     6.9140 ca         1 2X5       0.416200
     25 N25         -3.7200     3.6380     2.1950 nz         1 2X5      -0.716600
     26 Cl1          1.3510     6.5030    10.6690 cl         1 2X5      -0.066400
     27 H1          -0.3600    -0.0160    -1.0220 h1         1 2X5       0.064200
     28 H2          -0.3600    -0.8740     0.5290 h1         1 2X5       0.064200
     29 H3           1.6780    -0.8730     1.8490 h1         1 2X5       0.078200
     30 H4           3.0930    -0.0180     1.2130 h1         1 2X5       0.078200
     31 H5           1.9620     2.1420     1.5400 h1         1 2X5       0.062700
     32 H6          -0.3170     0.4680     2.6940 hc         1 2X5       0.103700
     33 H7          -0.1350     2.1240     0.1580 hc         1 2X5       0.053200
     34 H8          -1.5890     1.2020     0.7630 hc         1 2X5       0.053200
     35 H9           3.2810     1.8350     5.6100 ha         1 2X5       0.167000
     36 H10          2.4940     3.4740     7.2650 ha         1 2X5       0.157000
     37 H11         -0.9130     4.3060     4.8000 ha         1 2X5       0.120000
     38 H12          0.1100     4.6970     2.3590 h1         1 2X5       0.109700
     39 H13          0.5240     3.5570     1.0410 h1         1 2X5       0.109700
     40 H14          1.9070     4.6980     8.5010 ha         1 2X5       0.158000
     41 H15         -1.0790     7.5490     9.6130 h4         1 2X5       0.047100
     42 H16         -1.4970     5.5180     6.0120 h4         1 2X5       0.007100
     43 H17         -4.0730     3.5240     1.2650 hn         1 2X5       0.485467
     44 H18         -4.1800     2.9940     2.8080 hn         1 2X5       0.485467
     45 H253        -3.8930     4.5740     2.5050 hn         1 2X5       0.485467
@<TRIPOS>BOND
     1     2     3 1   
     2     2     1 1   
     3     3     4 1   
     4     4     7 1   
     5     4     5 1   
     6    18    17 1   
     7    18    10 1   
     8     1     6 1   
     9     7     8 1   
    10     6     5 1   
    11     8    11 ar  
    12     8     9 ar  
    13    17    16 1   
    14     5    10 1   
    15    11    12 ar  
    16    10     9 1   
    17    10    15 1   
    18     9    14 ar  
    19    12    13 ar  
    20    14    13 ar  
    21    24    23 ar  
    22    24    19 ar  
    23    13    19 1   
    24    16    15 2   
    25    16    25 1   
    26    23    22 ar  
    27    19    20 ar  
    28    22    21 ar  
    29    20    21 ar  
    30    21    26 1   
    31     1    27 1   
    32     1    28 1   
    33     3    29 1   
    34     3    30 1   
    35     4    31 1   
    36     5    32 1   
    37     6    33 1   
    38     6    34 1   
    39    11    35 1   
    40    12    36 1   
    41    14    37 1   
    42    18    38 1   
    43    18    39 1   
    44    20    40 1   
    45    22    41 1   
    46    24    42 1   
    47    25    43 1   
    48    25    44 1   
    49    45    25 1   
@<TRIPOS>SUBSTRUCTURE
     1 2X5         1 TEMP              0 ****  ****    0 ROOT
