@<TRIPOS>MOLECULE
2X5
   45    49     1     0     0
SMALL
bcc


@<TRIPOS>ATOM
      1 C1           0.0000     0.0000     0.0000 c3         1 2X5       0.216400
      2 O2           1.4280     0.0000     0.0000 os         1 2X5      -0.384600
      3 C3           2.0140     0.0000     1.3030 c3         1 2X5       0.213400
      4 C4           1.5870     1.2640     2.0520 c3         1 2X5       0.151100
      5 C5           0.0520     1.3110     2.1220 c3         1 2X5      -0.092700
      6 C6          -0.5100     1.2630     0.6990 c3         1 2X5      -0.083400
      7 O7           2.0950     1.2250     3.3880 os         1 2X5      -0.284900
      8 C8           1.6290     2.1440     4.2740 ca         1 2X5       0.187100
      9 C9           0.4510     2.8420     4.0470 ca         1 2X5      -0.208300
     10 C10         -0.3500     2.6140     2.7980 c3         1 2X5       0.157500
     11 C11          2.3610     2.3780     5.4350 ca         1 2X5      -0.116000
     12 C12          1.9220     3.2980     6.3630 ca         1 2X5      -0.031000
     13 C13          0.7380     3.9960     6.1380 cp         1 2X5      -0.045000
     14 C14          0.0070     3.7640     4.9760 ca         1 2X5      -0.057000
     15 N15         -1.7910     2.6350     3.0860 n2         1 2X5      -0.427900
     16 C16         -2.3680     3.3940     2.2040 c2         1 2X5       0.327500
     17 O17         -1.5190     3.9220     1.2990 os         1 2X5      -0.385400
     18 C18         -0.1810     3.7990     1.8270 c3         1 2X5       0.188400
     19 C19          0.2570     4.9870     7.1330 cp         1 2X5      -0.147300
     20 C20          0.9830     5.2280     8.3010 ca         1 2X5      -0.061000
     21 C21          0.4930     6.1620     9.2000 ca         1 2X5      -0.155900
     22 C22         -0.6900     6.8200     8.9120 ca         1 2X5       0.418200
     23 N23         -1.3550     6.5700     7.8000 nb         1 2X5      -0.566000
     24 C24         -0.9230     5.6950     6.9140 ca         1 2X5       0.393200
     25 N25         -3.7200     3.6380     2.1950 nz         1 2X5       0.237400
     26 Cl1          1.3510     6.5030    10.6690 cl         1 2X5       0.029600
     27 H1          -0.3600    -0.0160    -1.0220 h1         1 2X5       0.021700
     28 H2          -0.3600    -0.8740     0.5290 h1         1 2X5       0.021700
     29 H3           1.6780    -0.8730     1.8490 h1         1 2X5       0.032700
     30 H4           3.0930    -0.0180     1.2130 h1         1 2X5       0.032700
     31 H5           1.9620     2.1420     1.5400 h1         1 2X5       0.031700
     32 H6          -0.3170     0.4680     2.6940 hc         1 2X5       0.074700
     33 H7          -0.1350     2.1240     0.1580 hc         1 2X5       0.027700
     34 H8          -1.5890     1.2020     0.7630 hc         1 2X5       0.027700
     35 H9           3.2810     1.8350     5.6100 ha         1 2X5       0.133000
     36 H10          2.4940     3.4740     7.2650 ha         1 2X5       0.125000
     37 H11         -0.9130     4.3060     4.8000 ha         1 2X5       0.097000
     38 H12          0.1100     4.6970     2.3590 h1         1 2X5       0.067200
     39 H13          0.5240     3.5570     1.0410 h1         1 2X5       0.067200
     40 H14          1.9070     4.6980     8.5010 ha         1 2X5       0.130000
     41 H15         -1.0790     7.5490     9.6130 h4         1 2X5      -0.001900
     42 H16         -1.4970     5.5180     6.0120 h4         1 2X5      -0.033900
     43 H17         -4.0730     3.5240     1.2650 hn         1 2X5       0.224133
     44 H18         -4.1800     2.9940     2.8080 hn         1 2X5       0.224133
     45 H253        -3.8930     4.5740     2.5050 hn         1 2X5       0.224133
@<TRIPOS>BOND
     1     1     2 1   
     2     1     6 1   
     3     1    27 1   
     4     1    28 1   
     5     2     3 1   
     6     3     4 1   
     7     3    29 1   
     8     3    30 1   
     9     4     5 1   
    10     4     7 1   
    11     4    31 1   
    12     5     6 1   
    13     5    10 1   
    14     5    32 1   
    15     6    33 1   
    16     6    34 1   
    17     7     8 1   
    18     8     9 ar  
    19     8    11 ar  
    20     9    10 1   
    21     9    14 ar  
    22    10    15 1   
    23    10    18 1   
    24    11    12 ar  
    25    11    35 1   
    26    12    13 ar  
    27    12    36 1   
    28    13    14 ar  
    29    13    19 1   
    30    14    37 1   
    31    15    16 2   
    32    16    17 1   
    33    16    25 1   
    34    17    18 1   
    35    18    38 1   
    36    18    39 1   
    37    19    20 ar  
    38    19    24 ar  
    39    20    21 ar  
    40    20    40 1   
    41    21    22 ar  
    42    21    26 1   
    43    22    23 ar  
    44    22    41 1   
    45    23    24 ar  
    46    24    42 1   
    47    25    43 1   
    48    25    44 1   
    49    25    45 1   
@<TRIPOS>SUBSTRUCTURE
     1 2X5         1 TEMP              0 ****  ****    0 ROOT
