@<TRIPOS>MOLECULE
2X6
   53    50     1     0     0
SMALL
bcc


@<TRIPOS>ATOM
      1 C1         -2.4780    0.3030   -0.1890 c1        1 2X6      0.113000
      2 C2         -3.0800    0.3050   -1.4780 c3        1 2X6     -0.161000
      3 C3          3.4710    0.7220    2.3250 c1        1 2X6     -0.224500
      4 C11        -1.6560   -2.9050    8.7410 c1        1 2X6     -0.073000
      5 C12        -1.0010    0.5210    6.0990 c2        1 2X6      0.165000
      6 C13        -1.3600    2.8200    5.5450 c2        1 2X6     -0.098000
      7 C14        -0.0270    3.3420    5.2710 c2        1 2X6     -0.079000
      8 C15         0.1470    4.4280    4.4710 c2        1 2X6     -0.219000
      9 C16        -0.9470    5.1130    3.8630 c1        1 2X6     -0.082000
     10 C17        -2.2800    4.7500    4.2930 c3        1 2X6     -0.257000
     11 C18        -2.4460    3.5280    5.0960 c2        1 2X6     -0.099000
     12 C19        -3.8350    8.3650    6.5040 c1        1 2X6     -0.355000
     13 C20        -3.3850    7.2640    5.9670 c1        1 2X6      0.169000
     14 C10        -1.8270   -0.2190    8.3410 c2        1 2X6      0.244000
     15 N2         -2.0980   -2.8770    9.8220 n1        1 2X6      0.017000
     16 N3         -1.1940   -3.0090    7.4650 nh        1 2X6     -0.197000
     17 C8         -0.9000   -1.8820    6.6880 c2        1 2X6      0.161000
     18 C7         -0.2310   -2.1360    5.4190 c2        1 2X6     -0.242000
     19 C9         -1.2340   -0.5970    7.0320 c2        1 2X6     -0.250000
     20 N6         -0.2440    0.2400    4.9080 na        1 2X6     -0.329000
     21 C6          0.1270   -1.0890    4.6070 c2        1 2X6      0.083000
     22 C5          1.0150   -2.6280    2.9230 c3        1 2X6     -0.137000
     23 C4          3.4780   -0.2920    1.6890 c1        1 2X6     -0.224500
     24 C          -1.9700    0.3020    0.8980 c1        1 2X6     -0.345000
     25 N          -1.3860    0.3100    2.1510 n4        1 2X6      0.087000
     26 N5         -4.4020    9.3900    6.9430 n2        1 2X6      0.031000
     27 H1          1.0930    1.8340    2.6700 ha        1 2X6      0.002500
     28 H2          0.9090    2.4220    2.9580 ha        1 2X6      0.002500
     29 H3          3.5040    1.6300    2.8750 ha        1 2X6      0.228000
     30 H4         -3.1330    1.3520   -1.8830 hc        1 2X6      0.143667
     31 H5         -2.4820   -0.3240   -2.1920 hc        1 2X6      0.143667
     32 H6         -4.1230   -0.1100   -1.4230 hc        1 2X6      0.143667
     33 H7         -0.6680   -3.8410    7.2770 hn        1 2X6      0.258000
     34 H8          0.8320    2.8470    5.7550 ha        1 2X6      0.131000
     35 H9          1.1580    4.8230    4.2710 ha        1 2X6      0.155000
     36 H10        -2.6200    5.6600    4.9330 hc        1 2X6      0.205500
     37 H11        -3.8620    9.9860    7.5500 hn        1 2X6      0.176000
     38 H12        -2.9910    4.7580    3.4200 hc        1 2X6      0.205500
     39 H13        -2.9180   -0.4160    8.4280 h4        1 2X6      0.123000
     40 H14        -0.0120   -3.1770    5.1380 ha        1 2X6      0.165000
     41 H15         1.6000   -0.7080    3.2540 hn        1 2X6      0.206000
     42 H16         0.0430   -3.1820    2.8320 h1        1 2X6      0.101333
     43 H17         3.5140   -1.1840    1.1130 ha        1 2X6      0.228000
     44 H18         1.6830   -3.1870    3.6320 h1        1 2X6      0.101333
     45 H19         1.5140   -2.5940    1.9170 h1        1 2X6      0.101333
     46 H20        -2.1020    0.1440    2.8730 hn        1 2X6      0.277333
     47 H21        -0.6500   -0.4380    2.2220 hn        1 2X6      0.277333
     48 H23         0.4330    0.9410    4.6700 hn        1 2X6      0.220000
     49 H24        -3.4760    3.2210    5.3390 ha        1 2X6      0.148000
     50 N1          0.7600   -1.2660    3.3290 nh        1 2X6     -0.319000
     51 O          -1.1660    0.2950    9.2370 o         1 2X6     -0.233000
     52 HN3        -0.9420    1.2280    2.3240 hn        1 2X6      0.277333
     53 N4         -1.5450    1.6800    6.3560 n2        1 2X6     -0.166000
@<TRIPOS>BOND
     1    1    2 1
     2    1   24 1
     3    2   30 1
     4    2   31 1
     5    2   32 1
     6    3   23 1
     7    3   29 1
     8    4   15 1
     9    4   16 1
    10    5   19 1
    11    5   20 1
    12    5   53 1
    13    6    7 1
    14    6   11 1
    15    6   53 1
    16    7    8 1
    17    7   34 1
    18    8    9 1
    19    8   35 1
    20    9   10 1
    21   10   11 1
    22   10   36 1
    23   10   38 1
    24   11   49 1
    25   12   13 1
    26   12   26 1
    27   14   19 1
    28   14   39 1
    29   14   51 1
    30   16   17 1
    31   16   33 1
    32   17   18 1
    33   17   19 1
    34   18   21 1
    35   18   40 1
    36   20   21 1
    37   20   48 1
    38   21   50 1
    39   22   42 1
    40   22   44 1
    41   22   45 1
    42   22   50 1
    43   23   43 1
    44   24   25 1
    45   25   46 1
    46   25   47 1
    47   25   52 1
    48   26   37 1
    49   27   28 1
    50   41   50 1
@<TRIPOS>SUBSTRUCTURE
     1 2X6         1 TEMP              0 ****  ****    0 ROOT
