@<TRIPOS>MOLECULE
2X7
   14    14     1     0     0
SMALL
bcc


@<TRIPOS>ATOM
      1 O1           0.0000     0.0000     0.0000 o          1 2X7      -0.566500
      2 C1           1.2060     0.0000     0.0000 c          1 2X7       0.680300
      3 C2           1.9480     0.0000     1.2680 cc         1 2X7       0.342600
      4 N            1.8270    -0.9880     2.0710 n2         1 2X7      -0.558100
      5 C3           2.8260     1.1170     1.6250 cc         1 2X7      -0.183600
      6 C4           3.4600     1.8190     0.7340 cd         1 2X7      -0.061000
      7 C5           3.3770     1.7680    -0.7000 cd         1 2X7      -0.218000
      8 C6           2.6800     1.0410    -1.4980 cc         1 2X7       0.124100
      9 O2           1.8910    -0.0070    -1.1690 os         1 2X7      -0.338200
     10 H1           1.2290    -1.7550     1.8340 hn         1 2X7       0.323400
     11 H2           2.9520     1.3680     2.6720 ha         1 2X7       0.124000
     12 H3           4.1540     2.5510     1.1300 ha         1 2X7       0.097000
     13 H4           4.0240     2.4760    -1.2040 ha         1 2X7       0.110000
     14 H5           2.7300     1.2960    -2.5500 h4         1 2X7       0.124000
@<TRIPOS>BOND
     1     1     2 2   
     2     2     3 1   
     3     2     9 1   
     4     3     4 2   
     5     3     5 1   
     6     4    10 1   
     7     5     6 2   
     8     5    11 1   
     9     6     7 1   
    10     6    12 1   
    11     7     8 2   
    12     7    13 1   
    13     8     9 1   
    14     8    14 1   
@<TRIPOS>SUBSTRUCTURE
     1 2X7         1 TEMP              0 ****  ****    0 ROOT
