@<TRIPOS>MOLECULE
molecule
   14    14     1     0     0
SMALL
bcc


@<TRIPOS>ATOM
      1 O1           0.0000     0.0000     0.0000 o          1 2X7      -0.523500
      2 C1           1.2060     0.0000     0.0000 c          1 2X7       0.611300
      3 C2           1.9480     0.0000     1.2680 cc         1 2X7       0.427600
      4 N            1.8270    -0.9880     2.0710 n2         1 2X7      -0.725100
      5 C3           2.8260     1.1170     1.6250 cd         1 2X7      -0.208600
      6 C4           3.4600     1.8190     0.7340 cc         1 2X7      -0.090000
      7 C5           3.3770     1.7680    -0.7000 cc         1 2X7      -0.235000
      8 C6           2.6800     1.0410    -1.4980 cd         1 2X7       0.091100
      9 O2           1.8910    -0.0070    -1.1690 os         1 2X7      -0.360200
     10 H1           1.2290    -1.7550     1.8340 hn         1 2X7       0.414400
     11 H2           2.9520     1.3680     2.6720 ha         1 2X7       0.159000
     12 H3           4.1540     2.5510     1.1300 ha         1 2X7       0.131000
     13 H4           4.0240     2.4760    -1.2040 ha         1 2X7       0.138000
     14 H5           2.7300     1.2960    -2.5500 h4         1 2X7       0.168000
@<TRIPOS>BOND
     1     6     7 1   
     2     6     5 2   
     3     7     8 2   
     4     5     3 1   
     5     8     9 1   
     6     3     4 2   
     7     3     2 1   
     8     9     2 1   
     9     2     1 2   
    10     4    10 1   
    11     5    11 1   
    12     6    12 1   
    13     7    13 1   
    14     8    14 1   
@<TRIPOS>SUBSTRUCTURE
     1 2X7         1 TEMP              0 ****  ****    0 ROOT
