@<TRIPOS>MOLECULE
molecule
   37    39     1     0     0
SMALL
bcc


@<TRIPOS>ATOM
      1 C1           0.0000     0.0000     0.0000 c3         1 2X9      -0.138400
      2 C2           1.5070     0.0000     0.0000 ca         1 2X9       0.445600
      3 C3           4.2260     0.0010    -0.0350 ca         1 2X9      -0.235600
      4 F4           8.0880     6.6760     1.6660 f          1 2X9      -0.124900
      5 C5           2.1900     0.0000     1.2010 ca         1 2X9      -0.122600
      6 C6           3.5770    -0.0010     1.1900 ca         1 2X9      -0.069000
      7 C7           3.4760    -0.0040    -1.1950 ca         1 2X9       0.403600
      8 N8           2.1580    -0.0040    -1.1460 nb         1 2X9      -0.704000
      9 C9           1.4380    -0.0010     2.5070 c3         1 2X9      -0.153100
     10 C11          4.1720    -0.0090    -2.5310 c3         1 2X9      -0.140400
     11 C12          5.7320     0.0000    -0.0990 c3         1 2X9      -0.035400
     12 F13          7.2600     4.2850     2.6580 f          1 2X9      -0.107900
     13 C20          1.0790    -1.4160     2.8790 c          1 2X9       0.891600
     14 O23          0.4020    -1.6610     4.0120 o          1 2X9      -0.841300
     15 O24          1.4020    -2.3310     2.1590 o          1 2X9      -0.841300
     16 C28          6.2280     1.4150    -0.2490 cc         1 2X9       0.441200
     17 N29          6.5100     2.1870     0.7310 nd         1 2X9      -0.572100
     18 S30          6.4910     2.1860    -1.7490 ss         1 2X9      -0.049100
     19 C32          7.0130     3.6560    -0.9310 ca         1 2X9      -0.120100
     20 C33          7.7370     5.6840     0.8190 ca         1 2X9       0.112900
     21 C34          7.4420     4.8890    -1.4230 ca         1 2X9       0.187900
     22 C35          6.9450     3.4300     0.4470 ca         1 2X9       0.144400
     23 C36          7.3180     4.4740     1.3210 ca         1 2X9       0.132900
     24 C37          7.8030     5.8940    -0.5530 ca         1 2X9      -0.196000
     25 F38          7.5040     5.0970    -2.7560 f          1 2X9      -0.130900
     26 H1          -0.3610    -0.0030    -1.0210 hc         1 2X9       0.052367
     27 H2          -0.3610     0.8860     0.5080 hc         1 2X9       0.052367
     28 H3          -0.3610    -0.8830     0.5130 hc         1 2X9       0.052367
     29 H4           4.1390     0.0010     2.1160 ha         1 2X9       0.144000
     30 H5           2.0600     0.4290     3.2830 hc         1 2X9       0.045200
     31 H6           0.5330     0.5850     2.4030 hc         1 2X9       0.045200
     32 H7           3.4640    -0.2740    -3.3070 hc         1 2X9       0.040700
     33 H8           4.5750     0.9760    -2.7320 hc         1 2X9       0.040700
     34 H9           4.9790    -0.7320    -2.5160 hc         1 2X9       0.040700
     35 H10          6.1320    -0.4280     0.8120 hc         1 2X9       0.073200
     36 H11          6.0570    -0.5880    -0.9480 hc         1 2X9       0.073200
     37 H13          8.1390     6.8490    -0.9380 ha         1 2X9       0.163000
@<TRIPOS>BOND
     1     4    20 1
     2    24    20 ar
     3    24    21 ar
     4    25    21 1
     5    20    23 ar
     6    21    19 ar
     7    15    13 1
     8    14    13 1
     9    23    12 1
    10    23    22 ar
    11    13     9 1
    12    19    22 ar
    13    19    18 1
    14    22    17 1
    15    18    16 1
    16     9     5 1
    17    17    16 2
    18    16    11 1
    19     5     6 ar
    20     5     2 ar
    21     6     3 ar
    22     1     2 1
    23     2     8 ar
    24     3    11 1
    25     3     7 ar
    26     8     7 ar
    27     7    10 1
    28     1    26 1
    29     1    27 1
    30     1    28 1
    31     6    29 1
    32     9    30 1
    33     9    31 1
    34    10    32 1
    35    10    33 1
    36    10    34 1
    37    11    35 1
    38    11    36 1
    39    24    37 1
@<TRIPOS>SUBSTRUCTURE
     1 2X9         1 TEMP              0 ****  ****    0 ROOT
