@<TRIPOS>MOLECULE
2X9
   37    39     1     0     0
SMALL
bcc


@<TRIPOS>ATOM
      1 C1          0.1000   -0.5410   -0.6780 c3        1 2X9     -0.172400
      2 C2          1.5420   -0.2890   -0.3720 ca        1 2X9      0.431600
      3 C3          4.2120    0.0960    0.2270 ca        1 2X9     -0.259600
      4 F4          9.8160    6.2160   -0.1620 f         1 2X9     -0.130900
      5 C5          1.8990    0.0770    0.9590 ca        1 2X9     -0.117600
      6 C6          3.2570    0.2470    1.2400 ca        1 2X9     -0.097000
      7 C7          3.7650   -0.2460   -1.0710 ca        1 2X9      0.399600
      8 N8          2.4550   -0.4340   -1.3580 nb        1 2X9     -0.688000
      9 C9          0.8890    0.2590    2.0210 c3        1 2X9     -0.185100
     10 C11         4.7640   -0.4290   -2.1700 c3        1 2X9     -0.141400
     11 C12         5.6570    0.2310    0.5510 c3        1 2X9     -0.049400
     12 F13         9.9340    3.4760    0.1640 f         1 2X9     -0.109900
     13 C20         0.5320   -1.0850    2.7210 c         1 2X9      0.923600
     14 O23         1.2040   -1.4050    3.7370 o         1 2X9     -0.828800
     15 O24        -0.4280   -1.7500    2.2430 o         1 2X9     -0.828800
     16 C28         6.1450    1.6270    0.3620 cc        1 2X9      0.378200
     17 N29         7.4280    1.9780    0.3280 nd        1 2X9     -0.537100
     18 S30         5.0110    2.9240    0.1980 ss        1 2X9      0.107900
     19 C32         6.2620    4.0430    0.0750 ca        1 2X9     -0.165100
     20 C33         8.6730    5.4930   -0.0820 ca        1 2X9      0.098900
     21 C34         6.2400    5.4440   -0.0910 ca        1 2X9      0.183900
     22 C35         7.5230    3.3640    0.1640 ca        1 2X9      0.095400
     23 C36         8.7390    4.0950    0.0840 ca        1 2X9      0.127900
     24 C37         7.4320    6.1620   -0.1690 ca        1 2X9     -0.192000
     25 F38         5.0610    6.1050   -0.1770 f         1 2X9     -0.127900
     26 H1         -0.3310   -1.1920    0.1350 hc        1 2X9      0.066367
     27 H2         -0.0440   -1.0410   -1.6660 hc        1 2X9      0.066367
     28 H3         -0.4500    0.4320   -0.6860 hc        1 2X9      0.066367
     29 H4          3.5690    0.4750    2.2720 ha        1 2X9      0.146000
     30 H5          1.2780    0.9570    2.8060 hc        1 2X9      0.041700
     31 H6         -0.0530    0.6900    1.5970 hc        1 2X9      0.041700
     32 H7          4.2780   -0.4910   -3.1750 hc        1 2X9      0.042033
     33 H8          5.4820    0.4270   -2.1760 hc        1 2X9      0.042033
     34 H9          5.3340   -1.3760   -1.9970 hc        1 2X9      0.042033
     35 H10         5.8350   -0.0610    1.6250 hc        1 2X9      0.083200
     36 H11         6.2680   -0.4710   -0.0840 hc        1 2X9      0.083200
     37 H13         7.4170    7.2540   -0.2970 ha        1 2X9      0.164000
@<TRIPOS>BOND
     1    1    2 1   
     2    1   26 1   
     3    1   27 1   
     4    1   28 1   
     5    2    5 ar  
     6    2    8 ar  
     7    3    6 ar  
     8    3    7 ar  
     9    3   11 1   
    10    4   20 1   
    11    5    6 ar  
    12    5    9 1   
    13    6   29 1   
    14    7    8 ar  
    15    7   10 1   
    16    9   13 1   
    17    9   30 1   
    18    9   31 1   
    19   10   32 1   
    20   10   33 1   
    21   10   34 1   
    22   11   16 1   
    23   11   35 1   
    24   11   36 1   
    25   12   23 1   
    26   13   14 1   
    27   13   15 1   
    28   16   17 2   
    29   16   18 1   
    30   17   22 1   
    31   18   19 1   
    32   19   21 ar  
    33   19   22 ar  
    34   20   23 ar  
    35   20   24 ar  
    36   21   24 ar  
    37   21   25 1   
    38   22   23 ar  
    39   24   37 1   
@<TRIPOS>SUBSTRUCTURE
     1 2X9         1 TEMP              0 ****  ****    0 ROOT
