@<TRIPOS>MOLECULE
molecule
   47    49     1     0     0
SMALL
bcc


@<TRIPOS>ATOM
      1 OE1          0.0000     0.0000     0.0000 o          1 2XB      -0.874300
      2 CT4          1.3430     0.0000     0.0000 c          1 2XB       0.890600
      3 OE2          1.9470     0.0000     1.0470 o          1 2XB      -0.874300
      4 CT3          2.0970    -0.0010    -1.3040 c3         1 2XB      -0.186400
      5 CT2          3.6010    -0.0020    -1.0250 c3         1 2XB      -0.059400
      6 CT1          4.3660    -0.0030    -2.3490 c3         1 2XB      -0.003300
      7 CT5          5.8430     0.1210    -2.0770 c          1 2XB       0.893600
      8 OT1          6.5990    -0.7480    -2.4420 o          1 2XB      -0.860300
      9 OXT          6.3180     1.1950    -1.4290 o          1 2XB      -0.860300
     10 NT1          4.1040    -1.2550    -3.0640 ns         1 2XB      -0.513900
     11 CAV          4.2250    -1.3030    -4.4060 c          1 2XB       0.659700
     12 OAD          4.5510    -0.3070    -5.0230 o          1 2XB      -0.636100
     13 CAY          3.9600    -2.5660    -5.1270 ca         1 2XB      -0.100600
     14 CAJ          3.5800    -3.7090    -4.4210 ca         1 2XB      -0.093500
     15 CAH          3.3360    -4.8850    -5.1010 ca         1 2XB      -0.140000
     16 CAK          4.0850    -2.6200    -6.5160 ca         1 2XB      -0.093500
     17 CAI          3.8360    -3.8010    -7.1830 ca         1 2XB      -0.140000
     18 CAX          3.4650    -4.9320    -6.4770 ca         1 2XB      -0.098300
     19 CAO          3.1970    -6.2200    -7.2130 c3         1 2XB       0.042100
     20 CAZ          1.7410    -6.2830    -7.5990 cc         1 2XB      -0.085400
     21 CBC          1.1310    -5.7060    -8.7970 ca         1 2XB      -0.353400
     22 CBA          1.6030    -4.9680    -9.8920 ca         1 2XB       0.737600
     23 OAE          2.9130    -4.6430    -9.9940 oh         1 2XB      -0.593300
     24 NAS          0.7360    -4.5980   -10.8260 nb         1 2XB      -0.850000
     25 CAW         -0.5490    -4.9150   -10.7310 ca         1 2XB       0.968900
     26 NAA         -1.4130    -4.5050   -11.7320 nv         1 2XB      -1.057500
     27 NAP         -1.0360    -5.6080    -9.7150 nb         1 2XB      -0.797000
     28 CBB         -0.2380    -6.0220    -8.7320 ca         1 2XB       0.513800
     29 NAR         -0.4330    -6.7360    -7.5810 na         1 2XB      -0.273100
     30 CAL          0.7560    -6.8850    -6.9140 cd         1 2XB      -0.116100
     31 H2           1.8360     0.8840    -1.8730 hc         1 2XB       0.022200
     32 H3           3.8630     0.8830    -0.4570 hc         1 2XB       0.060200
     33 H4           4.0400     0.8340    -2.9550 h1         1 2XB       0.068700
     34 H6           3.8770    -2.0840    -2.5530 hn         1 2XB       0.300500
     35 H7           3.5560    -3.6940    -3.3380 ha         1 2XB       0.149000
     36 H8           3.0470    -5.7750    -4.5540 ha         1 2XB       0.120500
     37 H9           4.3100    -1.7200    -7.0750 ha         1 2XB       0.149000
     38 H10          3.9580    -3.8510    -8.2580 ha         1 2XB       0.120500
     39 H11          3.4360    -7.0590    -6.5710 hc         1 2XB       0.047700
     40 H12          3.8100    -6.2610    -8.1050 hc         1 2XB       0.047700
     41 H14         -1.6090    -5.1120   -12.5030 hn         1 2XB       0.437800
     42 H15         -1.8570    -3.6100   -11.6740 hn         1 2XB       0.437800
     43 H16         -1.3140    -7.0960    -7.2720 hn         1 2XB       0.302700
     44 H17          0.8820    -7.4100    -5.9740 h4         1 2XB       0.176000
     45 H18          1.8340    -0.8850    -1.8720 hc         1 2XB       0.022200
     46 H19          3.8620    -0.8860    -0.4570 hc         1 2XB       0.060200
     47 H20          3.1690    -4.6500   -10.9020 ho         1 2XB       0.431000
@<TRIPOS>BOND
     1     8     7 1   
     2     7     6 1   
     3     7     9 1   
     4    26    25 1   
     5     6     5 1   
     6     6    10 1   
     7     5     4 1   
     8    25    24 ar  
     9    25    27 ar  
    10    12    11 2   
    11    24    22 ar  
    12     3     2 1   
    13    10    11 1   
    14    11    13 1   
    15     4     2 1   
    16    27    28 ar  
    17     2     1 1   
    18    14    13 ar  
    19    14    15 ar  
    20    22    23 1   
    21    22    21 ar  
    22    13    16 ar  
    23    28    21 ar  
    24    28    29 1   
    25    15    18 ar  
    26    21    20 1   
    27    16    17 ar  
    28    29    30 1   
    29    18    17 ar  
    30    18    19 1   
    31    20    30 2   
    32    20    19 1   
    33     4    31 1   
    34     5    32 1   
    35     6    33 1   
    36    10    34 1   
    37    14    35 1   
    38    15    36 1   
    39    16    37 1   
    40    17    38 1   
    41    19    39 1   
    42    19    40 1   
    43    26    41 1   
    44    26    42 1   
    45    29    43 1   
    46    30    44 1   
    47     4    45 1   
    48     5    46 1   
    49    23    47 1   
@<TRIPOS>SUBSTRUCTURE
     1 2XB         1 TEMP              0 ****  ****    0 ROOT
