@<TRIPOS>MOLECULE
2XB
   47    49     1     0     0
SMALL
bcc


@<TRIPOS>ATOM
      1 OE1          0.0000     0.0000     0.0000 o          1 2XB      -0.920800
      2 CT4          1.3430     0.0000     0.0000 c          1 2XB       0.982600
      3 OE2          1.9470     0.0000     1.0470 o          1 2XB      -0.920800
      4 CT3          2.0970    -0.0010    -1.3040 c3         1 2XB      -0.143400
      5 CT2          3.6010    -0.0020    -1.0250 c3         1 2XB      -0.012400
      6 CT1          4.3660    -0.0030    -2.3490 c3         1 2XB      -0.113300
      7 CT5          5.8430     0.1210    -2.0770 c          1 2XB       0.987600
      8 OT1          6.5990    -0.7480    -2.4420 o          1 2XB      -0.908800
      9 OXT          6.3180     1.1950    -1.4290 o          1 2XB      -0.908800
     10 NT1          4.1040    -1.2550    -3.0640 ns         1 2XB      -0.089900
     11 CAV          4.2250    -1.3030    -4.4060 c          1 2XB       0.565700
     12 OAD          4.5510    -0.3070    -5.0230 o          1 2XB      -0.683100
     13 CAY          3.9600    -2.5660    -5.1270 ca         1 2XB      -0.101600
     14 CAJ          3.5800    -3.7090    -4.4210 ca         1 2XB      -0.069000
     15 CAH          3.3360    -4.8850    -5.1010 ca         1 2XB      -0.121000
     16 CAK          4.0850    -2.6200    -6.5160 ca         1 2XB      -0.069000
     17 CAI          3.8360    -3.8010    -7.1830 ca         1 2XB      -0.121000
     18 CAX          3.4650    -4.9320    -6.4770 ca         1 2XB      -0.113300
     19 CAO          3.1970    -6.2200    -7.2130 c3         1 2XB       0.123100
     20 CAZ          1.7410    -6.2830    -7.5990 cc         1 2XB      -0.064400
     21 CBC          1.1310    -5.7060    -8.7970 ca         1 2XB      -0.361400
     22 CBA          1.6030    -4.9680    -9.8920 ca         1 2XB       0.722600
     23 OAE          2.9130    -4.6430    -9.9940 oh         1 2XB      -0.580300
     24 NAS          0.7360    -4.5980   -10.8260 nb         1 2XB      -0.750000
     25 CAW         -0.5490    -4.9150   -10.7310 ca         1 2XB       0.745900
     26 NAA         -1.4130    -4.5050   -11.7320 nv         1 2XB      -0.638500
     27 NAP         -1.0360    -5.6080    -9.7150 nb         1 2XB      -0.667000
     28 CBB         -0.2380    -6.0220    -8.7320 ca         1 2XB       0.276800
     29 NAR         -0.4330    -6.7360    -7.5810 na         1 2XB       0.272900
     30 CAL          0.7560    -6.8850    -6.9140 cd         1 2XB      -0.292100
     31 H2           1.8360     0.8840    -1.8730 hc         1 2XB      -0.000800
     32 H3           3.8630     0.8830    -0.4570 hc         1 2XB       0.036700
     33 H4           4.0400     0.8340    -2.9550 h1         1 2XB       0.052700
     34 H6           3.8770    -2.0840    -2.5530 hn         1 2XB       0.158500
     35 H7           3.5560    -3.6940    -3.3380 ha         1 2XB       0.123000
     36 H8           3.0470    -5.7750    -4.5540 ha         1 2XB       0.099000
     37 H9           4.3100    -1.7200    -7.0750 ha         1 2XB       0.123000
     38 H10          3.9580    -3.8510    -8.2580 ha         1 2XB       0.099000
     39 H11          3.4360    -7.0590    -6.5710 hc         1 2XB       0.014700
     40 H12          3.8100    -6.2610    -8.1050 hc         1 2XB       0.014700
     41 H14         -1.6090    -5.1120   -12.5030 hn         1 2XB       0.271800
     42 H15         -1.8570    -3.6100   -11.6740 hn         1 2XB       0.271800
     43 H16         -1.3140    -7.0960    -7.2720 hn         1 2XB       0.114700
     44 H17          0.8820    -7.4100    -5.9740 h4         1 2XB       0.150000
     45 H18          1.8340    -0.8850    -1.8720 hc         1 2XB      -0.000800
     46 H19          3.8620    -0.8860    -0.4570 hc         1 2XB       0.036700
     47 H20          3.1690    -4.6500   -10.9020 ho         1 2XB       0.407000
@<TRIPOS>BOND
     1     1     2 1   
     2     2     3 1   
     3     2     4 1   
     4     4     5 1   
     5     4    31 1   
     6     4    45 1   
     7     5     6 1   
     8     5    32 1   
     9     5    46 1   
    10     6     7 1   
    11     6    10 1   
    12     6    33 1   
    13     7     8 1   
    14     7     9 1   
    15    10    11 1   
    16    10    34 1   
    17    11    12 2   
    18    11    13 1   
    19    13    14 ar  
    20    13    16 ar  
    21    14    15 ar  
    22    14    35 1   
    23    15    18 ar  
    24    15    36 1   
    25    16    17 ar  
    26    16    37 1   
    27    17    18 ar  
    28    17    38 1   
    29    18    19 1   
    30    19    20 1   
    31    19    39 1   
    32    19    40 1   
    33    20    21 1   
    34    20    30 2   
    35    21    22 ar  
    36    21    28 ar  
    37    22    23 1   
    38    22    24 ar  
    39    23    47 1   
    40    24    25 ar  
    41    25    26 1   
    42    25    27 ar  
    43    26    41 1   
    44    26    42 1   
    45    27    28 ar  
    46    28    29 1   
    47    29    30 1   
    48    29    43 1   
    49    30    44 1   
@<TRIPOS>SUBSTRUCTURE
     1 2XB         1 TEMP              0 ****  ****    0 ROOT
