@<TRIPOS>MOLECULE
molecule
   44    46     1     0     0
SMALL
bcc


@<TRIPOS>ATOM
      1 CAS          0.0000     0.0000     0.0000 ca         1 2XC      -0.123000
      2 CAT          1.3820     0.0000     0.0000 ca         1 2XC      -0.124500
      3 CAU          2.0740     0.0000     1.1970 ca         1 2XC      -0.127000
      4 CAV          1.3830     0.0020     2.3940 ca         1 2XC      -0.124500
      5 CAW         -0.0000     0.0030     2.3950 ca         1 2XC      -0.123000
      6 CAR         -0.6910     0.0020     1.1970 ca         1 2XC      -0.086300
      7 CAP         -2.1980     0.0090     1.1980 c3         1 2XC      -0.043400
      8 CAQ         -2.7040     1.2600     1.9210 c3         1 2XC       0.237800
      9 CAO         -2.7140    -1.2370     1.9210 c3         1 2XC      -0.073400
     10 CAN         -4.2450    -1.2480     1.8930 c3         1 2XC      -0.102400
     11 CAM         -4.7730    -0.0110     2.6250 c3         1 2XC       0.220800
     12 NAL         -4.1680     1.1880     2.0270 nh         1 2XC      -0.706400
     13 CAK         -4.9500     2.2130     1.5790 c2         1 2XC       0.188000
     14 CAI         -6.2950     2.0900     1.5880 ce         1 2XC      -0.437200
     15 CAH         -7.1000     3.1010     1.0160 c          1 2XC       0.602900
     16 OAJ         -6.5820     4.0830     0.5150 o          1 2XC      -0.560100
     17 CAE         -8.5720     2.9670     1.0250 ca         1 2XC      -0.176600
     18 CAD         -9.1710     1.8460     1.6040 ca         1 2XC      -0.073000
     19 CAC        -10.5440     1.7270     1.6110 ca         1 2XC      -0.167000
     20 CAB        -11.3340     2.7140     1.0440 ca         1 2XC      -0.085000
     21 CAA        -10.7540     3.8280     0.4700 ca         1 2XC      -0.207000
     22 CAF         -9.3740     3.9660     0.4590 ca         1 2XC       0.170100
     23 OAG         -8.8030     5.0620    -0.1010 oh         1 2XC      -0.481100
     24 H1          -0.5420    -0.0010    -0.9380 ha         1 2XC       0.131000
     25 H2           1.9240    -0.0010    -0.9380 ha         1 2XC       0.131500
     26 H3           3.1570    -0.0010     1.1970 ha         1 2XC       0.131000
     27 H4           1.9240     0.0020     3.3330 ha         1 2XC       0.131500
     28 H5          -0.5420     0.0040     3.3330 ha         1 2XC       0.131000
     29 H6          -2.5650     0.0110     0.1780 hc         1 2XC       0.067700
     30 H7          -2.2710     1.3050     2.9130 h1         1 2XC       0.054700
     31 H8          -2.4250     2.1420     1.3570 h1         1 2XC       0.054700
     32 H9          -2.3740    -1.2240     2.9490 hc         1 2XC       0.049200
     33 H10         -2.3400    -2.1230     1.4220 hc         1 2XC       0.049200
     34 H11         -4.6090    -2.1410     2.3860 hc         1 2XC       0.053200
     35 H12         -4.5870    -1.2310     0.8650 hc         1 2XC       0.053200
     36 H13         -4.5050    -0.0680     3.6730 h1         1 2XC       0.056200
     37 H14         -5.8510     0.0380     2.5220 h1         1 2XC       0.056200
     38 H15         -4.4900     3.0860     1.1320 h4         1 2XC       0.170000
     39 H16         -6.7520     1.1780     1.9520 ha         1 2XC       0.130000
     40 H17         -8.5570     1.0710     2.0480 ha         1 2XC       0.136000
     41 H18        -11.0080     0.8570     2.0600 ha         1 2XC       0.130000
     42 H19        -12.4120     2.6120     1.0520 ha         1 2XC       0.130000
     43 H20        -11.3780     4.5970     0.0310 ha         1 2XC       0.136000
     44 H21         -9.1940     5.8400     0.2610 ho         1 2XC       0.418000
@<TRIPOS>BOND
     1     3     2 ar  
     2     3     4 ar  
     3     2     1 ar  
     4     4     5 ar  
     5     1     6 ar  
     6     5     6 ar  
     7     6     7 1   
     8     7     8 1   
     9     7     9 1   
    10     8    12 1   
    11    12    11 1   
    12    12    13 1   
    13     9    10 1   
    14    11    10 1   
    15    13    14 2   
    16    14    15 1   
    17    19    18 ar  
    18    19    20 ar  
    19    18    17 ar  
    20    20    21 ar  
    21    17    15 1   
    22    17    22 ar  
    23    15    16 2   
    24    21    22 ar  
    25    22    23 1   
    26     1    24 1   
    27     2    25 1   
    28     3    26 1   
    29     4    27 1   
    30     5    28 1   
    31     7    29 1   
    32     8    30 1   
    33     8    31 1   
    34     9    32 1   
    35     9    33 1   
    36    10    34 1   
    37    10    35 1   
    38    11    36 1   
    39    11    37 1   
    40    13    38 1   
    41    14    39 1   
    42    18    40 1   
    43    19    41 1   
    44    20    42 1   
    45    21    43 1   
    46    23    44 1   
@<TRIPOS>SUBSTRUCTURE
     1 2XC         1 TEMP              0 ****  ****    0 ROOT
