@<TRIPOS>MOLECULE
2XC
   44    48     1     0     0
SMALL
bcc


@<TRIPOS>ATOM
      1 CAS          0.0000     0.0000     0.0000 ca         1 2XC      -0.094500
      2 CAT          1.3820     0.0000     0.0000 ca         1 2XC      -0.094500
      3 CAU          2.0740     0.0000     1.1970 ca         1 2XC      -0.095000
      4 CAV          1.3830     0.0020     2.3940 ca         1 2XC      -0.094500
      5 CAW         -0.0000     0.0030     2.3950 ca         1 2XC      -0.094500
      6 CAR         -0.6910     0.0020     1.1970 ca         1 2XC      -0.089000
      7 CAP         -2.1980     0.0090     1.1980 c3         1 2XC      -0.050000
      8 CAQ         -2.7040     1.2600     1.9210 c3         1 2XC      -0.085000
      9 CAO         -2.7140    -1.2370     1.9210 c3         1 2XC      -0.115000
     10 CAN         -4.2450    -1.2480     1.8930 c3         1 2XC      -0.116000
     11 CAM         -4.7730    -0.0110     2.6250 c3         1 2XC      -0.176000
     12 NAL         -4.1680     1.1880     2.0270 nx         1 2XC       0.193000
     13 CAK         -4.9500     2.2130     1.5790 c2         1 2XC      -0.079000
     14 CAI         -6.2950     2.0900     1.5880 c2         1 2XC      -0.668000
     15 CAH         -7.1000     3.1010     1.0160 c3         1 2XC       0.468000
     16 OAJ         -6.5820     4.0830     0.5150 o          1 2XC      -0.398000
     17 CAE         -8.5720     2.9670     1.0250 ca         1 2XC      -0.190000
     18 CAD         -9.1710     1.8460     1.6040 ca         1 2XC      -0.020000
     19 CAC        -10.5440     1.7270     1.6110 ca         1 2XC      -0.162000
     20 CAB        -11.3340     2.7140     1.0440 ca         1 2XC      -0.046000
     21 CAA        -10.7540     3.8280     0.4700 ca         1 2XC      -0.208000
     22 CAF         -9.3740     3.9660     0.4590 ca         1 2XC       0.150000
     23 OAG         -8.8030     5.0620    -0.1010 oh         1 2XC      -0.205000
     24 H1          -0.5420    -0.0010    -0.9380 ha         1 2XC       0.107000
     25 H2           1.9240    -0.0010    -0.9380 ha         1 2XC       0.105000
     26 H3           3.1570    -0.0010     1.1970 ha         1 2XC       0.105000
     27 H4           1.9240     0.0020     3.3330 ha         1 2XC       0.105000
     28 H5          -0.5420     0.0040     3.3330 ha         1 2XC       0.107000
     29 H6          -2.5650     0.0110     0.1780 hc         1 2XC       0.088000
     30 H7          -2.2710     1.3050     2.9130 hx         1 2XC       0.087000
     31 H8          -2.4250     2.1420     1.3570 hx         1 2XC       0.087000
     32 H9          -2.3400    -2.1230     1.4220 hc         1 2XC       0.067000
     33 H10         -2.3740    -1.2240     2.9490 hc         1 2XC       0.067000
     34 H11         -4.6090    -2.1410     2.3860 hc         1 2XC       0.070500
     35 H12         -4.5870    -1.2310     0.8650 hc         1 2XC       0.070500
     36 H13         -4.5050    -0.0680     3.6730 hx         1 2XC       0.104500
     37 H14         -5.8510     0.0380     2.5220 hx         1 2XC       0.104500
     38 H15         -4.7450     2.0690     2.6330 DU         1 2XC       0.208000
     39 H16         -6.5590     2.9890     2.1330 DU         1 2XC       0.157000
     40 H17         -8.5570     1.0710     2.0480 ha         1 2XC       0.126000
     41 H18        -11.0080     0.8570     2.0600 ha         1 2XC       0.104000
     42 H19        -12.4120     2.6120     1.0520 ha         1 2XC       0.097000
     43 H20        -11.3780     4.5970     0.0310 ha         1 2XC       0.111000
     44 H21         -9.2490     5.8360     0.2000 ho         1 2XC       0.192000
@<TRIPOS>BOND
     1     1     2 1   
     2     1     6 1   
     3     1    24 1   
     4     2     3 1   
     5     2    25 1   
     6     3     4 1   
     7     3    26 1   
     8     4     5 1   
     9     4    27 1   
    10     5     6 1   
    11     5    28 1   
    12     6     7 1   
    13     7     8 1   
    14     7     9 1   
    15     7    29 1   
    16     8    12 1   
    17     8    30 1   
    18     8    31 1   
    19     9    10 1   
    20     9    32 1   
    21     9    33 1   
    22    10    11 1   
    23    10    34 1   
    24    10    35 1   
    25    11    12 1   
    26    11    36 1   
    27    11    37 1   
    28    12    13 1   
    29    12    38 1   
    30    13    14 1   
    31    13    38 1   
    32    14    15 1   
    33    14    39 1   
    34    15    16 1   
    35    15    17 1   
    36    15    39 1   
    37    17    18 1   
    38    17    22 1   
    39    18    19 1   
    40    18    40 1   
    41    19    20 1   
    42    19    41 1   
    43    20    21 1   
    44    20    42 1   
    45    21    22 1   
    46    21    43 1   
    47    22    23 1   
    48    23    44 1   
@<TRIPOS>SUBSTRUCTURE
     1 2XC         1 TEMP              0 ****  ****    0 ROOT
