@<TRIPOS>MOLECULE
2XD
   35    39     1     0     0
SMALL
bcc


@<TRIPOS>ATOM
      1 C4           0.0000     0.0000     0.0000 ca         1 2XD      -0.020000
      2 C14          0.0010    -0.4470    -4.8610 c3         1 2XD      -0.067000
      3 C5           1.3960     0.0000     0.0000 ca         1 2XD      -0.190000
      4 C6           2.1390     0.0010    -1.2770 c3         1 2XD       0.462000
      5 C11          0.7690    -1.9850    -6.7670 c2         1 2XD      -0.268000
      6 C7           1.4360     0.0020    -2.5030 c2         1 2XD      -0.629000
      7 C8           2.1160     0.0030    -3.6710 c2         1 2XD      -0.053000
      8 C9           2.1510    -0.0360    -6.1350 c3         1 2XD      -0.090000
      9 C10          2.1560    -1.3970    -6.8410 c3         1 2XD      -0.017000
     10 C12          0.2470    -2.9790    -7.5120 c2         1 2XD      -0.213000
     11 C13         -0.2180    -1.5580    -5.8630 c2         1 2XD      -0.081000
     12 N1          -1.0250    -3.1760    -7.0970 na         1 2XD       0.304000
     13 N2          -1.2890    -2.2690    -6.0600 n2         1 2XD      -0.193000
     14 C3          -0.6870    -0.0010     1.1960 ca         1 2XD      -0.161000
     15 O1           3.3580     0.0020    -1.2730 o          1 2XD      -0.403000
     16 C2           0.0010    -0.0010     2.3970 ca         1 2XD      -0.046000
     17 C1           1.3820     0.0010     2.4110 ca         1 2XD      -0.209000
     18 C            2.0890     0.0000     1.2190 ca         1 2XD       0.150000
     19 O            3.4460     0.0000     1.2310 oh         1 2XD      -0.205000
     20 N            1.4460    -0.1540    -4.8510 nx         1 2XD       0.183000
     21 H1          -0.5430    -0.0000    -0.9380 ha         1 2XD       0.127000
     22 H3          -0.3170    -0.7710    -3.8780 hx         1 2XD       0.113000
     23 H4           1.7960     0.9260    -2.0660 DU         1 2XD       0.143000
     24 H5           1.6540     0.8480    -4.1660 DU         1 2XD       0.183000
     25 H6           1.6050     0.6640    -6.7560 hx         1 2XD       0.084500
     26 H7           3.1780     0.2430    -5.9320 hx         1 2XD       0.084500
     27 H8           2.8330    -2.0540    -6.3080 hc         1 2XD       0.073000
     28 H9           2.4020    -1.2380    -7.8840 hc         1 2XD       0.073000
     29 H10          0.7540    -3.5210    -8.3000 h4         1 2XD       0.148000
     30 H11         -1.6710    -3.8400    -7.4760 hn         1 2XD       0.102000
     31 H12         -1.7700    -0.0010     1.1950 ha         1 2XD       0.104000
     32 H13         -0.5460    -0.0010     3.3320 ha         1 2XD       0.097000
     33 H14          1.9130     0.0010     3.3550 ha         1 2XD       0.111000
     34 H15          3.7550     0.6450     1.8460 ho         1 2XD       0.192000
     35 H2          -0.5520     0.4340    -5.1630 hx         1 2XD       0.113000
@<TRIPOS>BOND
     1     1     3 1   
     2     1    14 1   
     3     1    21 1   
     4     2    11 1   
     5     2    20 1   
     6     2    22 1   
     7     2    35 1   
     8     3     4 1   
     9     3    18 1   
    10     4     6 1   
    11     4    15 1   
    12     4    23 1   
    13     5     9 1   
    14     5    10 1   
    15     5    11 1   
    16     6     7 1   
    17     6    23 1   
    18     7    20 1   
    19     7    24 1   
    20     8     9 1   
    21     8    20 1   
    22     8    25 1   
    23     8    26 1   
    24     9    27 1   
    25     9    28 1   
    26    10    12 1   
    27    10    29 1   
    28    11    13 1   
    29    12    13 1   
    30    12    30 1   
    31    14    16 1   
    32    14    31 1   
    33    16    17 1   
    34    16    32 1   
    35    17    18 1   
    36    17    33 1   
    37    18    19 1   
    38    19    34 1   
    39    20    24 1   
@<TRIPOS>SUBSTRUCTURE
     1 2XD         1 TEMP              0 ****  ****    0 ROOT
