@<TRIPOS>MOLECULE
molecule
   35    37     1     0     0
SMALL
bcc


@<TRIPOS>ATOM
      1 C4           0.0000     0.0000     0.0000 ca         1 2XD      -0.072000
      2 C14          0.0010    -0.4470    -4.8610 c3         1 2XD       0.213500
      3 C5           1.3960     0.0000     0.0000 ca         1 2XD      -0.177600
      4 C6           2.1390     0.0010    -1.2770 c          1 2XD       0.602900
      5 C11          0.7690    -1.9850    -6.7670 cc         1 2XD      -0.303600
      6 C7           1.4360     0.0020    -2.5030 ce         1 2XD      -0.428200
      7 C8           2.1160     0.0030    -3.6710 c2         1 2XD       0.186000
      8 C9           2.1510    -0.0360    -6.1350 c3         1 2XD       0.231800
      9 C10          2.1560    -1.3970    -6.8410 c3         1 2XD      -0.022100
     10 C12          0.2470    -2.9790    -7.5120 cd         1 2XD      -0.103300
     11 C13         -0.2180    -1.5580    -5.8630 cd         1 2XD       0.321600
     12 N1          -1.0250    -3.1760    -7.0970 na         1 2XD      -0.047600
     13 N2          -1.2890    -2.2690    -6.0600 nc         1 2XD      -0.497800
     14 C3          -0.6870    -0.0010     1.1960 ca         1 2XD      -0.167000
     15 O1           3.3580     0.0020    -1.2730 o          1 2XD      -0.560100
     16 C2           0.0010    -0.0010     2.3970 ca         1 2XD      -0.084000
     17 C1           1.3820     0.0010     2.4110 ca         1 2XD      -0.208000
     18 C            2.0890     0.0000     1.2190 ca         1 2XD       0.170100
     19 O            3.4460     0.0000     1.2310 oh         1 2XD      -0.481100
     20 N            1.4460    -0.1540    -4.8510 nh         1 2XD      -0.710400
     21 H1          -0.5430    -0.0000    -0.9380 ha         1 2XD       0.138000
     22 H3          -0.3170    -0.7710    -3.8780 h1         1 2XD       0.073200
     23 H4           0.3600    -0.1230    -2.5050 ha         1 2XD       0.130000
     24 H5           3.1990     0.0030    -3.6650 h4         1 2XD       0.170000
     25 H6           3.1780     0.2430    -5.9320 h1         1 2XD       0.058200
     26 H7           1.6050     0.6640    -6.7560 h1         1 2XD       0.058200
     27 H8           2.8330    -2.0540    -6.3080 hc         1 2XD       0.058200
     28 H9           2.4020    -1.2380    -7.8840 hc         1 2XD       0.058200
     29 H10          0.7540    -3.5210    -8.3000 h4         1 2XD       0.172000
     30 H11         -1.6610    -3.8610    -7.4550 hn         1 2XD       0.332700
     31 H12         -1.7700    -0.0010     1.1950 ha         1 2XD       0.131000
     32 H13         -0.5460    -0.0010     3.3320 ha         1 2XD       0.130000
     33 H14          1.9130     0.0010     3.3550 ha         1 2XD       0.136000
     34 H15          3.7550     0.6990     1.7830 ho         1 2XD       0.418000
     35 H2          -0.5520     0.4340    -5.1630 h1         1 2XD       0.073200
@<TRIPOS>BOND
     1    12    13 1   
     2    12    10 1   
     3    13    11 2   
     4    10     5 2   
     5    11     5 1   
     6    11     2 1   
     7     5     9 1   
     8     2    20 1   
     9     9     8 1   
    10     8    20 1   
    11    20     7 1   
    12     7     6 2   
    13     6     4 1   
    14     4    15 2   
    15     4     3 1   
    16     1     3 ar  
    17     1    14 ar  
    18     3    18 ar  
    19    14    16 ar  
    20    18    19 1   
    21    18    17 ar  
    22    16    17 ar  
    23     1    21 1   
    24     2    35 1   
    25     2    22 1   
    26     6    23 1   
    27     7    24 1   
    28     8    25 1   
    29     8    26 1   
    30     9    27 1   
    31     9    28 1   
    32    10    29 1   
    33    12    30 1   
    34    14    31 1   
    35    16    32 1   
    36    17    33 1   
    37    19    34 1   
@<TRIPOS>SUBSTRUCTURE
     1 2XD         1 TEMP              0 ****  ****    0 ROOT
