@<TRIPOS>MOLECULE
2XE
   13    13     1     0     0
SMALL
bcc


@<TRIPOS>ATOM
      1 SAH         0.0470    0.2280   -0.2730 sh        1 2XE     -0.236700
      2 CAI         4.5290    0.0040   -0.0330 ca        1 2XE     -0.037900
      3 BR          6.3970   -0.0930    0.0230 br        1 2XE     -0.085100
      4 CAK         3.7980    0.1420    1.1500 ca        1 2XE     -0.085000
      5 CAL         2.4080    0.2140    1.1060 ca        1 2XE     -0.134500
      6 CAM         1.7310    0.1490   -0.1160 ca        1 2XE      0.024900
      7 CAN         2.4700    0.0110   -1.2990 ca        1 2XE     -0.134500
      8 CAO         3.8590   -0.0610   -1.2590 ca        1 2XE     -0.085000
      9 H1         -0.2980    0.3520    0.9970 hs        1 2XE      0.191800
     10 H2          4.3120    0.1940    2.1230 ha        1 2XE      0.149000
     11 H3          1.8450    0.3220    2.0460 ha        1 2XE      0.142500
     12 H4          1.9470   -0.0400   -2.2670 ha        1 2XE      0.142500
     13 H5          4.4230   -0.1690   -2.1990 ha        1 2XE      0.149000
@<TRIPOS>BOND
     1    1    6 1   
     2    1    9 1   
     3    2    3 1   
     4    2    4 ar  
     5    2    8 ar  
     6    4    5 ar  
     7    4   10 1   
     8    5    6 ar  
     9    5   11 1   
    10    6    7 ar  
    11    7    8 ar  
    12    7   12 1   
    13    8   13 1   
@<TRIPOS>SUBSTRUCTURE
     1 2XE         1 TEMP              0 ****  ****    0 ROOT
