@<TRIPOS>MOLECULE
molecule
   13    13     1     0     0
SMALL
bcc


@<TRIPOS>ATOM
      1 SAH          0.0000     0.0000     0.0000 sh         1 2XE      -0.361700
      2 CAI          4.5300     0.0000     0.0000 ca         1 2XE       0.002100
      3 Br           6.4210     0.0070    -0.0000 br         1 2XE      -0.088100
      4 CAK          3.8390     0.0000     1.1990 ca         1 2XE      -0.116000
      5 CAL          2.4590     0.0000     1.2030 ca         1 2XE      -0.084000
      6 CAM          1.7620     0.0000    -0.0000 ca         1 2XE       0.035900
      7 CAN          2.4590    -0.0010    -1.2030 ca         1 2XE      -0.084000
      8 CAO          3.8390    -0.0010    -1.1990 ca         1 2XE      -0.116000
      9 H1          -0.4430     1.2510    -0.0010 hs         1 2XE       0.209800
     10 H2           4.3820    -0.0000     2.1360 ha         1 2XE       0.149000
     11 H3           1.9190     0.0000     2.1420 ha         1 2XE       0.151000
     12 H4           1.9190    -0.0010    -2.1420 ha         1 2XE       0.151000
     13 H5           4.3820    -0.0020    -2.1360 ha         1 2XE       0.149000
@<TRIPOS>BOND
     1     1     6 1
     2     5     6 ar
     3     5     4 ar
     4     6     7 ar
     5     4     2 ar
     6     7     8 ar
     7     2     8 ar
     8     2     3 1
     9     1     9 1
    10     4    10 1
    11     5    11 1
    12     7    12 1
    13     8    13 1
@<TRIPOS>SUBSTRUCTURE
     1 2XE         1 TEMP              0 ****  ****    0 ROOT
