@<TRIPOS>MOLECULE
molecule
   58    60     1     0     0
SMALL
bcc


@<TRIPOS>ATOM
      1 C1           0.0000     0.0000     0.0000 c3         1 2XF       0.134700
      2 C2           1.5300     0.0000     0.0000 c3         1 2XF       0.139800
      3 N3           2.0210     0.0000     1.3840 n7         1 2XF      -0.816200
      4 C4           1.5880    -1.2050     2.1010 c3         1 2XF       0.160800
      5 C5           0.0590    -1.2420     2.1640 c3         1 2XF      -0.136700
      6 C6          -0.5060    -1.2420     0.7410 c3         1 2XF      -0.079400
      7 C7          -0.3860    -2.4910     2.8800 c          1 2XF       0.674100
      8 N8          -0.1730    -2.6200     4.2050 n          1 2XF      -0.457800
      9 O9          -0.9350    -3.3810     2.2660 o          1 2XF      -0.614100
     10 N10         -0.4890    -0.0220    -1.3810 ns         1 2XF      -0.572900
     11 C11          0.3960    -1.5050     4.9670 cx         1 2XF       0.027700
     12 C12         -0.5110    -3.8730     4.8840 c3         1 2XF       0.156300
     13 C13         -0.4560    -0.2420     5.1150 cx         1 2XF      -0.137900
     14 C14         -0.2470    -1.1690     6.3150 cx         1 2XF      -0.137900
     15 C15          0.6280    -4.8480     4.7320 ca         1 2XF      -0.097300
     16 C16          0.5740    -5.8290     3.7590 ca         1 2XF      -0.093000
     17 C17          1.6180    -6.7250     3.6190 ca         1 2XF      -0.123000
     18 C18          2.7170    -6.6400     4.4530 ca         1 2XF      -0.111000
     19 C19          2.7730    -5.6600     5.4260 ca         1 2XF       0.025400
     20 C20          1.7300    -4.7600     5.5620 ca         1 2XF       0.039400
     21 Cl1          1.8030    -3.5240     6.7800 cl         1 2XF      -0.092400
     22 Cl2          4.1530    -5.5540     6.4740 cl         1 2XF      -0.089400
     23 C23         -0.6220     1.1310    -2.0670 c          1 2XF       0.752100
     24 O24         -0.3370     2.1880    -1.5390 o          1 2XF      -0.616000
     25 O25         -1.0720     1.1110    -3.3360 os         1 2XF      -0.438900
     26 C26         -1.1900     2.3910    -4.0130 c3         1 2XF       0.178800
     27 C27         -1.7110     2.1680    -5.4340 c3         1 2XF      -0.105767
     28 C28         -2.1640     3.2850    -3.2460 c3         1 2XF      -0.105767
     29 C29          0.1830     3.0640    -4.0730 c3         1 2XF      -0.105767
     30 H1          -0.3600     0.8900     0.5020 h1         1 2XF       0.092700
     31 H2           1.8900     0.8860    -0.5090 h1         1 2XF       0.045200
     32 H3           1.8900    -0.8860    -0.5090 h1         1 2XF       0.045200
     33 H4           3.0200     0.0470     1.3840 hn         1 2XF       0.362800
     34 H6           1.9470    -2.0830     1.5780 h1         1 2XF       0.041200
     35 H7           1.9890    -1.1890     3.1080 h1         1 2XF       0.041200
     36 H8          -0.3000    -0.3680     2.6940 hc         1 2XF       0.087700
     37 H9          -1.5880    -1.2210     0.7820 hc         1 2XF       0.061200
     38 H10         -0.1740    -2.1320     0.2200 hc         1 2XF       0.061200
     39 H11         -0.7640    -0.8890    -1.8010 hn         1 2XF       0.324500
     40 H12          1.4630    -1.3280     4.9170 h1         1 2XF       0.096700
     41 H13         -0.6830    -3.6790     5.9360 h1         1 2XF       0.073700
     42 H14         -1.4070    -4.2930     4.4430 h1         1 2XF       0.073700
     43 H15         -1.4370    -0.2840     4.6580 hc         1 2XF       0.083200
     44 H16          0.0930     0.6910     5.1450 hc         1 2XF       0.083200
     45 H17         -1.1000    -1.7770     6.5900 hc         1 2XF       0.083200
     46 H18          0.4300    -0.8020     7.0760 hc         1 2XF       0.083200
     47 H19         -0.2870    -5.8960     3.1050 ha         1 2XF       0.159000
     48 H20          1.5740    -7.4930     2.8560 ha         1 2XF       0.143000
     49 H21          3.5340    -7.3440     4.3450 ha         1 2XF       0.149000
     50 H22         -1.8030     3.1230    -5.9390 hc         1 2XF       0.049589
     51 H23         -2.6820     1.6880    -5.3920 hc         1 2XF       0.049589
     52 H24         -1.0190     1.5370    -5.9780 hc         1 2XF       0.049589
     53 H25         -1.6510     3.7440    -2.4090 hc         1 2XF       0.049589
     54 H26         -2.9900     2.6880    -2.8790 hc         1 2XF       0.049589
     55 H27         -2.5420     4.0570    -3.9050 hc         1 2XF       0.049589
     56 H28          0.9500     2.3100    -4.2010 hc         1 2XF       0.049589
     57 H29          0.3600     3.6060    -3.1530 hc         1 2XF       0.049589
     58 H30          0.2100     3.7530    -4.9090 hc         1 2XF       0.049589
@<TRIPOS>BOND
     1     3     2 1   
     2     3     4 1   
     3     2     1 1   
     4     4     5 1   
     5     1    10 1   
     6     1     6 1   
     7     5     6 1   
     8     5     7 1   
     9    10    23 1   
    10    28    26 1   
    11    23    25 1   
    12    23    24 2   
    13     9     7 2   
    14    25    26 1   
    15     7     8 1   
    16    14    11 1   
    17    14    13 1   
    18    17    16 ar  
    19    17    18 ar  
    20    16    15 ar  
    21    26    29 1   
    22    26    27 1   
    23     8    11 1   
    24     8    12 1   
    25    11    13 1   
    26    18    19 ar  
    27    15    12 1   
    28    15    20 ar  
    29    19    20 ar  
    30    19    22 1   
    31    20    21 1   
    32     1    30 1   
    33     2    31 1   
    34     2    32 1   
    35     3    33 1   
    36     4    34 1   
    37     4    35 1   
    38     5    36 1   
    39     6    37 1   
    40     6    38 1   
    41    10    39 1   
    42    11    40 1   
    43    12    41 1   
    44    12    42 1   
    45    13    43 1   
    46    13    44 1   
    47    14    45 1   
    48    14    46 1   
    49    16    47 1   
    50    17    48 1   
    51    18    49 1   
    52    27    50 1   
    53    27    51 1   
    54    27    52 1   
    55    28    53 1   
    56    28    54 1   
    57    28    55 1   
    58    29    56 1   
    59    29    57 1   
    60    29    58 1   
@<TRIPOS>SUBSTRUCTURE
     1 2XF         1 TEMP              0 ****  ****    0 ROOT
