@<TRIPOS>MOLECULE
2XG
   13    13     1     0     0
SMALL
bcc


@<TRIPOS>ATOM
      1 SAG         0.0590   -0.3200   -0.3150 sh        1 2XG     -0.227700
      2 CAH         4.5340    0.0590   -0.0130 ca        1 2XG      0.082900
      3 FAI         5.8800    0.1760    0.0450 f         1 2XG     -0.123900
      4 CAJ         3.7790   -0.1020    1.1790 ca        1 2XG      0.112900
      5 FAK         4.4020   -0.1410    2.3780 f         1 2XG     -0.123900
      6 CAL         2.3820   -0.2230    1.1080 ca        1 2XG     -0.166000
      7 CAM         1.7360   -0.1840   -0.1280 ca        1 2XG      0.023900
      8 CAN         2.4870   -0.0240   -1.3020 ca        1 2XG     -0.111000
      9 CAO         3.8680    0.0970   -1.2500 ca        1 2XG     -0.125000
     10 H1         -0.3070   -0.4530    0.9480 hs        1 2XG      0.193800
     11 H2          1.8160   -0.3470    2.0430 ha        1 2XG      0.152000
     12 H3          1.9720    0.0070   -2.2760 ha        1 2XG      0.154000
     13 H4          4.4560    0.2230   -2.1720 ha        1 2XG      0.157000
@<TRIPOS>BOND
     1    1    7 1   
     2    1   10 1   
     3    2    3 1   
     4    2    4 ar  
     5    2    9 ar  
     6    4    5 1   
     7    4    6 ar  
     8    6    7 ar  
     9    6   11 1   
    10    7    8 ar  
    11    8    9 ar  
    12    8   12 1   
    13    9   13 1   
@<TRIPOS>SUBSTRUCTURE
     1 2XG         1 TEMP              0 ****  ****    0 ROOT
