@<TRIPOS>MOLECULE
molecule
   13    13     1     0     0
SMALL
bcc


@<TRIPOS>ATOM
      1 SAG          0.0000     0.0000     0.0000 sh         1 2XG      -0.348700
      2 CAH          4.5320     0.0000     0.0000 ca         1 2XG       0.121900
      3 FAI          5.8830    -0.0000    -0.0010 f          1 2XG      -0.122900
      4 CAJ          3.8390     0.0000     1.2030 ca         1 2XG       0.086900
      5 FAK          4.5160    -0.0000     2.3720 f          1 2XG      -0.123900
      6 CAL          2.4570     0.0000     1.2040 ca         1 2XG      -0.102000
      7 CAM          1.7620     0.0010     0.0010 ca         1 2XG       0.031900
      8 CAN          2.4590     0.0010    -1.2010 ca         1 2XG      -0.075000
      9 CAO          3.8400     0.0060    -1.1990 ca         1 2XG      -0.157000
     10 H1          -0.4420    -1.2520    -0.0020 hs         1 2XG       0.209800
     11 H2           1.9150     0.0000     2.1430 ha         1 2XG       0.166000
     12 H3           1.9190     0.0060    -2.1400 ha         1 2XG       0.156000
     13 H4           4.3820     0.0060    -2.1360 ha         1 2XG       0.157000
@<TRIPOS>BOND
     1     3     2 1
     2     9     2 ar
     3     9     8 ar
     4     2     4 ar
     5     8     7 ar
     6     4     5 1
     7     4     6 ar
     8     7     6 ar
     9     7     1 1
    10     1    10 1
    11     6    11 1
    12     8    12 1
    13     9    13 1
@<TRIPOS>SUBSTRUCTURE
     1 2XG         1 TEMP              0 ****  ****    0 ROOT
