@<TRIPOS>MOLECULE
2XH
   19    20     1     0     0
SMALL
bcc


@<TRIPOS>ATOM
      1 C14         0.0090    0.0010   -0.0690 ca        1 2XH     -0.126000
      2 C5          1.4220    0.0670   -0.0480 ca        1 2XH     -0.123000
      3 C6          2.0970    0.0590    1.1480 ca        1 2XH     -0.121000
      4 C11         1.3880   -0.0160    2.3780 ca        1 2XH     -0.025000
      5 C7          2.0720   -0.0250    3.6250 ca        1 2XH     -0.123000
      6 C8          1.3670   -0.0980    4.8000 ca        1 2XH     -0.113000
      7 C9         -0.0450   -0.1650    4.7850 ca        1 2XH     -0.148000
      8 C10        -0.7400   -0.1580    3.5950 ca        1 2XH      0.029900
      9 C12        -0.0290   -0.0830    2.3580 ca        1 2XH     -0.023000
     10 C13        -0.7010   -0.0730    1.1050 ca        1 2XH     -0.113000
     11 SAH        -2.4340   -0.2360    3.5010 sh        1 2XH     -0.247700
     12 H1         -0.5130    0.0080   -1.0380 ha        1 2XH      0.134000
     13 H2          1.9690    0.1250   -1.0000 ha        1 2XH      0.133000
     14 H3          3.1960    0.1110    1.1770 ha        1 2XH      0.133000
     15 H4          3.1710    0.0280    3.6260 ha        1 2XH      0.134000
     16 H5          1.8880   -0.1060    5.7690 ha        1 2XH      0.134000
     17 H6         -0.5770   -0.2230    5.7470 ha        1 2XH      0.130000
     18 H7         -1.8020   -0.1250    1.0910 ha        1 2XH      0.146000
     19 H8         -2.7280   -0.2930    4.7880 hs        1 2XH      0.186800
@<TRIPOS>BOND
     1    1    2 ar  
     2    1   10 ar  
     3    1   12 1   
     4    2    3 ar  
     5    2   13 1   
     6    3    4 ar  
     7    3   14 1   
     8    4    5 ar  
     9    4    9 ar  
    10    5    6 ar  
    11    5   15 1   
    12    6    7 ar  
    13    6   16 1   
    14    7    8 ar  
    15    7   17 1   
    16    8    9 ar  
    17    8   11 1   
    18    9   10 ar  
    19   10   18 1   
    20   11   19 1   
@<TRIPOS>SUBSTRUCTURE
     1 2XH         1 TEMP              0 ****  ****    0 ROOT
