@<TRIPOS>MOLECULE
molecule
   19    20     1     0     0
SMALL
bcc


@<TRIPOS>ATOM
      1 C14          0.0000     0.0000     0.0000 ca         1 2XH      -0.123000
      2 C5           1.3940     0.0000     0.0000 ca         1 2XH      -0.124000
      3 C6           2.0940     0.0000     1.1670 ca         1 2XH      -0.117000
      4 C11          1.4050    -0.0010     2.3920 ca         1 2XH      -0.040000
      5 C7           2.0950    -0.0060     3.6160 ca         1 2XH      -0.097000
      6 C8           1.4030    -0.0110     4.7890 ca         1 2XH      -0.136000
      7 C9           0.0110    -0.0110     4.8010 ca         1 2XH      -0.096000
      8 C10         -0.7050    -0.0070     3.6210 ca         1 2XH       0.043900
      9 C12         -0.0130    -0.0010     2.3910 ca         1 2XH      -0.006000
     10 C13         -0.7010     0.0050     1.1680 ca         1 2XH      -0.114000
     11 SAH         -2.4660    -0.0080     3.6510 sh         1 2XH      -0.351700
     12 H1          -0.5340    -0.0000    -0.9430 ha         1 2XH       0.131000
     13 H2           1.9270    -0.0040    -0.9430 ha         1 2XH       0.129000
     14 H3           3.1770    -0.0000     1.1510 ha         1 2XH       0.133000
     15 H4           3.1780    -0.0060     3.6270 ha         1 2XH       0.134000
     16 H5           1.9440    -0.0140     5.7270 ha         1 2XH       0.133000
     17 H6          -0.5160    -0.0150     5.7480 ha         1 2XH       0.138000
     18 H7          -1.7840     0.0050     1.1540 ha         1 2XH       0.156000
     19 H8          -2.8980    -1.1070     4.2570 hs         1 2XH       0.205800
@<TRIPOS>BOND
     1     6     7 ar  
     2     6     5 ar  
     3     7     8 ar  
     4     5     4 ar  
     5     8    11 1   
     6     8     9 ar  
     7     4     9 ar  
     8     4     3 ar  
     9     9    10 ar  
    10     3     2 ar  
    11    10     1 ar  
    12     2     1 ar  
    13     1    12 1   
    14     2    13 1   
    15     3    14 1   
    16     5    15 1   
    17     6    16 1   
    18     7    17 1   
    19    10    18 1   
    20    11    19 1   
@<TRIPOS>SUBSTRUCTURE
     1 2XH         1 TEMP              0 ****  ****    0 ROOT
