@<TRIPOS>MOLECULE
molecule
   61    63     1     0     0
SMALL
bcc


@<TRIPOS>ATOM
      1 CAC          0.0000     0.0000     0.0000 c3         1 2XJ      -0.120100
      2 CBF          1.5300     0.0000     0.0000 c3         1 2XJ       0.152800
      3 CAD          2.0400     0.0000     1.4430 c3         1 2XJ      -0.120100
      4 OAG          2.0060    -1.1670    -0.6740 oh         1 2XJ      -0.590800
      5 CAN          2.0400     1.2500    -0.7210 c3         1 2XJ       0.151400
      6 OAT          1.4710     1.3100    -2.0290 os         1 2XJ      -0.301900
      7 CBB          1.8240     2.3670    -2.8080 ca         1 2XJ       0.115100
      8 CAK          2.6980     3.3230    -2.3230 ca         1 2XJ      -0.150000
      9 CBA          1.3100     2.4850    -4.0980 ca         1 2XJ       0.129100
     10 OAS          0.4540     1.5430    -4.5760 os         1 2XJ      -0.307900
     11 CAB         -0.0340     1.7260    -5.9060 c3         1 2XJ       0.126700
     12 CAI          1.6690     3.5630    -4.8950 ca         1 2XJ      -0.193000
     13 CAH          2.5360     4.5210    -4.4140 ca         1 2XJ      -0.112000
     14 CAY          3.0580     4.4060    -3.1250 ca         1 2XJ      -0.129500
     15 CBE          3.9880     5.4340    -2.6080 cc         1 2XJ       0.542900
     16 NAR          4.5350     5.4310    -1.4260 nd         1 2XJ      -0.673000
     17 SAV          4.5370     6.8530    -3.4950 ss         1 2XJ      -0.238300
     18 CBD          5.5050     7.3410    -2.1040 cc         1 2XJ      -0.113700
     19 CAM          6.3720     8.5690    -2.0180 c3         1 2XJ      -0.004100
     20 CAL          7.7840     8.2320    -2.5010 c3         1 2XJ      -0.082400
     21 CAA          8.6640     9.4800    -2.4150 c3         1 2XJ      -0.093100
     22 CBC          5.3390     6.4290    -1.1400 cd         1 2XJ       0.369600
     23 CAO          6.0290     6.5430     0.1960 c3         1 2XJ      -0.017600
     24 SAU          4.9810     7.4740     1.3400 ss         1 2XJ      -0.294400
     25 C4           6.0020     7.4540     2.7760 ca         1 2XJ       0.637600
     26 C5           5.5820     8.0760     3.9490 ca         1 2XJ      -0.486600
     27 N3           7.1830     6.8400     2.7560 nb         1 2XJ      -0.859000
     28 C2           7.9540     6.8170     3.8320 ca         1 2XJ       0.990900
     29 NAF          9.1720     6.1630     3.7740 nv         1 2XJ      -0.995500
     30 N1           7.5870     7.3970     4.9650 nb         1 2XJ      -0.876000
     31 C6           6.4210     8.0340     5.0580 ca         1 2XJ       0.775200
     32 NAE          6.0450     8.6400     6.2460 nv         1 2XJ      -1.001500
     33 H1          -0.3610    -0.1760    -1.0060 hc         1 2XJ       0.046367
     34 H2          -0.3610     0.9590     0.3510 hc         1 2XJ       0.046367
     35 H3          -0.3610    -0.7830     0.6550 hc         1 2XJ       0.046367
     36 H4           3.1230    -0.0240     1.4430 hc         1 2XJ       0.046367
     37 H5           1.6990     0.8960     1.9460 hc         1 2XJ       0.046367
     38 H6           1.6590    -0.8720     1.9600 hc         1 2XJ       0.046367
     39 H7           1.7950    -1.9320    -0.1650 ho         1 2XJ       0.402000
     40 H8           1.7530     2.1320    -0.1610 h1         1 2XJ       0.047200
     41 H9           3.1200     1.2060    -0.7980 h1         1 2XJ       0.047200
     42 H10          3.1010     3.2310    -1.3220 ha         1 2XJ       0.164000
     43 H11          0.8000     1.7420    -6.5970 h1         1 2XJ       0.041367
     44 H12         -0.6990     0.9100    -6.1620 h1         1 2XJ       0.041367
     45 H13         -0.5730     2.6630    -5.9670 h1         1 2XJ       0.041367
     46 H14          1.2650     3.6520    -5.8960 ha         1 2XJ       0.143000
     47 H15          2.8150     5.3620    -5.0380 ha         1 2XJ       0.135000
     48 H16          5.9540     9.3510    -2.6410 hc         1 2XJ       0.061200
     49 H17          6.4140     8.9100    -0.9900 hc         1 2XJ       0.061200
     50 H18          7.7410     7.8910    -3.5290 hc         1 2XJ       0.046700
     51 H19          8.2020     7.4510    -1.8780 hc         1 2XJ       0.046700
     52 H20          8.3640    10.1880    -3.1780 hc         1 2XJ       0.035700
     53 H21          8.5530     9.9340    -1.4380 hc         1 2XJ       0.035700
     54 H22          9.7000     9.2020    -2.5690 hc         1 2XJ       0.035700
     55 H23          6.9740     7.0570     0.0720 h1         1 2XJ       0.090700
     56 H24          6.2070     5.5520     0.5950 h1         1 2XJ       0.090700
     57 H25          4.6280     8.5870     3.9950 ha         1 2XJ       0.147000
     58 H26          9.5730     5.9290     2.8870 hn         1 2XJ       0.448800
     59 H27          9.6580     5.9340     4.6190 hn         1 2XJ       0.448800
     60 H28          6.6500     8.5990     7.0420 hn         1 2XJ       0.442800
     61 H29          5.1690     9.1200     6.3080 hn         1 2XJ       0.442800
@<TRIPOS>BOND
     1    21    20 1   
     2    19    20 1   
     3    19    18 1   
     4    17    18 1   
     5    17    15 1   
     6    13    12 ar  
     7    13    14 ar  
     8    18    22 2   
     9    12     9 ar  
    10    29    28 1   
    11    28    30 ar  
    12    28    27 ar  
    13    30    31 ar  
    14    15    14 1   
    15    15    16 2   
    16    27    25 ar  
    17    14     8 ar  
    18    11    10 1   
    19    31    32 1   
    20    31    26 ar  
    21    25    26 ar  
    22    25    24 1   
    23     9    10 1   
    24     9     7 ar  
    25    24    23 1   
    26    22    16 1   
    27    22    23 1   
    28     8     7 ar  
    29     7     6 1   
    30     6     5 1   
    31     5     2 1   
    32     4     2 1   
    33     3     2 1   
    34     2     1 1   
    35     1    33 1   
    36     1    34 1   
    37     1    35 1   
    38     3    36 1   
    39     3    37 1   
    40     3    38 1   
    41     4    39 1   
    42     5    40 1   
    43     5    41 1   
    44     8    42 1   
    45    11    43 1   
    46    11    44 1   
    47    11    45 1   
    48    12    46 1   
    49    13    47 1   
    50    19    48 1   
    51    19    49 1   
    52    20    50 1   
    53    20    51 1   
    54    21    52 1   
    55    21    53 1   
    56    21    54 1   
    57    23    55 1   
    58    23    56 1   
    59    26    57 1   
    60    29    58 1   
    61    29    59 1   
    62    32    60 1   
    63    32    61 1   
@<TRIPOS>SUBSTRUCTURE
     1 2XJ         1 TEMP              0 ****  ****    0 ROOT
