@<TRIPOS>MOLECULE
2XK
   38    39     1     0     0
SMALL
bcc


@<TRIPOS>ATOM
      1 C10          0.0000     0.0000     0.0000 ca         1 2XK      -0.091000
      2 C15          1.3760    -0.0000     2.4220 ca         1 2XK      -0.052500
      3 C17          6.4450    -1.2110     0.3740 ca         1 2XK      -0.321200
      4 C01          7.5210     3.3010     0.4270 c3         1 2XK       0.222700
      5 C03          7.8420     1.1770     0.5010 ca         1 2XK       0.113100
      6 C04          6.4790     1.1810     0.2470 ca         1 2XK      -0.148000
      7 C05          5.7840    -0.0130     0.1850 ca         1 2XK      -0.046300
      8 C06          4.3030    -0.0050    -0.0920 c3         1 2XK      -0.085100
      9 C07          3.5480    -0.0050     1.2130 c          1 2XK       0.647700
     10 C08          2.0760     0.0000     1.2120 ca         1 2XK      -0.160600
     11 C09          1.3770     0.0000     0.0000 ca         1 2XK      -0.052500
     12 C11         -0.6980     0.0050     1.2100 ca         1 2XK       0.070000
     13 C12         -2.1310     0.0100     1.2090 cg         1 2XK       0.220800
     14 N13         -3.2660     0.0300     1.1950 n1         1 2XK      -0.366800
     15 C14         -0.0010     0.0060     2.4200 ca         1 2XK      -0.091000
     16 O16          4.1540    -0.0110     2.2630 o          1 2XK      -0.528100
     17 C18          7.8030    -1.2230     0.6340 ca         1 2XK      -0.162000
     18 C19          8.5060    -0.0310     0.6980 ca         1 2XK       0.169100
     19 O20          9.8430    -0.0400     0.9460 os         1 2XK      -0.324900
     20 O23          4.9170    -3.1450     1.1660 o          1 2XK      -0.400000
     21 O24          6.4190    -3.4540    -0.4250 o          1 2XK      -0.400000
     22 H1          -0.4730     0.0000    -0.9750 ha         1 2XK       0.118000
     23 H2           1.6980     0.2160     3.4330 ha         1 2XK       0.120000
     24 H3          10.1590    -1.8030     1.4760 h1         1 2XK       0.003033
     25 H4          10.6090    -1.8060    -0.1280 h1         1 2XK       0.003033
     26 H5          11.6360    -0.9530     1.2500 h1         1 2XK       0.003033
     27 H6           6.6380     3.3270     1.0530 h1         1 2XK      -0.013300
     28 H7           8.0850     4.2260     0.4420 h1         1 2XK      -0.013300
     29 H8           7.0620     3.4930    -0.5350 h1         1 2XK      -0.013300
     30 H9           5.6880     1.8840     0.0180 ha         1 2XK       0.148000
     31 H10          4.0460     0.7340    -0.8420 hc         1 2XK       0.043200
     32 H11          4.3350    -0.9070    -0.6910 hc         1 2XK       0.043200
     33 H12          2.0400     0.1430    -0.8440 ha         1 2XK       0.120000
     34 H13         -0.4770     0.1670     3.3800 ha         1 2XK       0.118000
     35 H14          8.2430    -2.0740     1.1390 ha         1 2XK       0.136000
     36 N22          5.8990    -2.7440     0.3750 no         1 2XK       0.936200
     37 C21         10.6990    -1.1940     0.7610 c3         1 2XK       0.260700
     38 O02          8.4910     2.4580     0.3330 os         1 2XK      -0.226900
@<TRIPOS>BOND
     1     1    11 ar  
     2     1    12 ar  
     3     1    22 1   
     4     2    10 ar  
     5     2    15 ar  
     6     2    23 1   
     7     3     7 ar  
     8     3    17 ar  
     9     3    36 1   
    10     4    27 1   
    11     4    28 1   
    12     4    29 1   
    13     4    38 1   
    14     5     6 ar  
    15     5    18 ar  
    16     5    38 1   
    17     6     7 ar  
    18     6    30 1   
    19     7     8 1   
    20     8     9 1   
    21     8    31 1   
    22     8    32 1   
    23     9    10 1   
    24     9    16 2   
    25    10    11 ar  
    26    11    33 1   
    27    12    13 1   
    28    12    15 ar  
    29    13    14 3   
    30    15    34 1   
    31    17    18 ar  
    32    17    35 1   
    33    18    19 1   
    34    19    37 1   
    35    20    36 1   
    36    21    36 1   
    37    24    37 1   
    38    25    37 1   
    39    26    37 1   
@<TRIPOS>SUBSTRUCTURE
     1 2XK         1 TEMP              0 ****  ****    0 ROOT
