@<TRIPOS>MOLECULE
molecule
   38    39     1     0     0
SMALL
bcc


@<TRIPOS>ATOM
      1 C10          0.0000     0.0000     0.0000 ca         1 2XK      -0.107500
      2 C15          1.3760    -0.0000     2.4220 ca         1 2XK      -0.084500
      3 C17          6.4450    -1.2110     0.3740 ca         1 2XK      -0.060200
      4 C01          7.5210     3.3010     0.4270 c3         1 2XK       0.097700
      5 C03          7.8420     1.1770     0.5010 ca         1 2XK       0.094100
      6 C04          6.4790     1.1810     0.2470 ca         1 2XK      -0.143000
      7 C05          5.7840    -0.0130     0.1850 ca         1 2XK      -0.070300
      8 C06          4.3030    -0.0050    -0.0920 c3         1 2XK      -0.153100
      9 C07          3.5480    -0.0050     1.2130 c          1 2XK       0.598700
     10 C08          2.0760     0.0000     1.2120 ca         1 2XK      -0.148600
     11 C09          1.3770     0.0000     0.0000 ca         1 2XK      -0.084500
     12 C11         -0.6980     0.0050     1.2100 ca         1 2XK       0.020000
     13 C12         -2.1310     0.0100     1.2090 cg         1 2XK       0.231800
     14 N13         -3.2660     0.0300     1.1950 n1         1 2XK      -0.348800
     15 C14         -0.0010     0.0060     2.4200 ca         1 2XK      -0.107500
     16 O16          4.1540    -0.0110     2.2630 o          1 2XK      -0.492100
     17 C18          7.8030    -1.2230     0.6340 ca         1 2XK      -0.189000
     18 C19          8.5060    -0.0310     0.6980 ca         1 2XK       0.176100
     19 O20          9.8430    -0.0400     0.9460 os         1 2XK      -0.345900
     20 O23          4.9170    -3.1450     1.1660 o          1 2XK      -0.177000
     21 O24          6.4190    -3.4540    -0.4250 o          1 2XK      -0.177000
     22 H1          -0.4730     0.0000    -0.9750 ha         1 2XK       0.148500
     23 H2           1.6980     0.2160     3.4330 ha         1 2XK       0.149500
     24 H3          10.1590    -1.8030     1.4760 h1         1 2XK       0.051033
     25 H4          10.6090    -1.8060    -0.1280 h1         1 2XK       0.051033
     26 H5          11.6360    -0.9530     1.2500 h1         1 2XK       0.051033
     27 H6           6.6380     3.3270     1.0530 h1         1 2XK       0.027367
     28 H7           8.0850     4.2260     0.4420 h1         1 2XK       0.027367
     29 H8           7.0620     3.4930    -0.5350 h1         1 2XK       0.027367
     30 H9           5.6880     1.8840     0.0180 ha         1 2XK       0.172000
     31 H10          4.0460     0.7340    -0.8420 hc         1 2XK       0.081200
     32 H11          4.3350    -0.9070    -0.6910 hc         1 2XK       0.081200
     33 H12          2.0400     0.1430    -0.8440 ha         1 2XK       0.149500
     34 H13         -0.4770     0.1670     3.3800 ha         1 2XK       0.148500
     35 H14          8.2430    -2.0740     1.1390 ha         1 2XK       0.168000
     36 N22          5.8990    -2.7440     0.3750 no         1 2XK       0.223200
     37 C21         10.6990    -1.1940     0.7610 c3         1 2XK       0.146700
     38 O02          8.4910     2.4580     0.3330 os         1 2XK      -0.230900
@<TRIPOS>BOND
     1     4    38 1   
     2    38     5 1   
     3    19    37 1   
     4    19    18 1   
     5     5    18 ar  
     6     5     6 ar  
     7    18    17 ar  
     8     6     7 ar  
     9    17     3 ar  
    10     7     3 ar  
    11     7     8 1   
    12     3    36 1   
    13    16     9 2   
    14     8     9 1   
    15     9    10 1   
    16    36    20 1   
    17    36    21 1   
    18     2    10 ar  
    19     2    15 ar  
    20    10    11 ar  
    21    15    12 ar  
    22    11     1 ar  
    23    12     1 ar  
    24    12    13 1   
    25    13    14 3   
    26     1    22 1   
    27     2    23 1   
    28    37    24 1   
    29    37    25 1   
    30    37    26 1   
    31     4    27 1   
    32     4    28 1   
    33     4    29 1   
    34     6    30 1   
    35     8    31 1   
    36     8    32 1   
    37    11    33 1   
    38    15    34 1   
    39    17    35 1   
@<TRIPOS>SUBSTRUCTURE
     1 2XK         1 TEMP              0 ****  ****    0 ROOT
