@<TRIPOS>MOLECULE
2XL
   48    50     1     0     0
SMALL
bcc


@<TRIPOS>ATOM
      1 CAB          0.0000     0.0000     0.0000 c3         1 2XL       0.239700
      2 OAP          1.4290     0.0000     0.0000 os         1 2XL      -0.289900
      3 CAX          2.0460     0.0000     1.2120 ca         1 2XL       0.136100
      4 CAU          3.4380    -0.0000     1.2830 ca         1 2XL       0.086100
      5 CAI          4.0670     0.0000     2.5140 ca         1 2XL      -0.076000
      6 OAE          4.1770    -0.0030     0.1420 oh         1 2XL      -0.482100
      7 CAG          1.2900     0.0080     2.3740 ca         1 2XL      -0.199000
      8 CAF          1.9110     0.0090     3.6050 ca         1 2XL      -0.058000
      9 CAV          3.3040     0.0030     3.6840 ca         1 2XL      -0.152500
     10 CBA          3.9720     0.0030     5.0030 cc         1 2XL       0.534900
     11 NAO          5.2590    -0.0020     5.1980 nd         1 2XL      -0.545000
     12 SAR          3.1530     0.0190     6.5630 ss         1 2XL      -0.331300
     13 CAZ          4.7160     0.0100     7.3780 cc         1 2XL      -0.074700
     14 CAK          4.9350     0.0160     8.8690 c3         1 2XL       0.063900
     15 CAJ          5.0210     1.4610     9.3650 c3         1 2XL      -0.032400
     16 CAA          5.2450     1.4670    10.8790 c3         1 2XL       0.006900
     17 CAY          5.6740     0.0000     6.4450 cd         1 2XL       0.331600
     18 CAL          7.1380    -0.0090     6.8020 c3         1 2XL       0.056400
     19 SAQ          7.7110    -1.7190     6.9500 ss         1 2XL      -0.378400
     20 C2           9.4020    -1.4400     7.3610 ca         1 2XL       0.798300
     21 N3           9.8430    -0.1950     7.4670 nb         1 2XL      -0.695500
     22 N1          10.1980    -2.4810     7.5590 nb         1 2XL      -0.695500
     23 C6          11.4800    -2.3080     7.8700 ca         1 2XL       0.569700
     24 NAC         12.3070    -3.4020     8.0760 nv         1 2XL      -0.584500
     25 C5          11.9810    -1.0150     7.9860 ca         1 2XL      -0.447600
     26 C4          11.1120     0.0530     7.7820 ca         1 2XL       0.569700
     27 NAD         11.5670     1.3580     7.8870 nv         1 2XL      -0.584500
     28 H1          -0.3610     0.8860     0.5070 h1         1 2XL      -0.001967
     29 H2          -0.3610    -0.8830     0.5140 h1         1 2XL      -0.001967
     30 H3          -0.3610    -0.0040    -1.0210 h1         1 2XL      -0.001967
     31 H4           5.1480    -0.0020     2.5720 ha         1 2XL       0.135000
     32 H5           4.5580    -0.8560     0.0170 ho         1 2XL       0.401000
     33 H6           0.2080     0.0130     2.3150 ha         1 2XL       0.125000
     34 H7           1.3170     0.0130     4.5110 ha         1 2XL       0.113000
     35 H8           4.1080    -0.4850     9.3580 hc         1 2XL       0.033700
     36 H9           5.8580    -0.5010     9.1010 hc         1 2XL       0.033700
     37 H10          5.8480     1.9620     8.8760 hc         1 2XL       0.018200
     38 H11          4.0980     1.9780     9.1340 hc         1 2XL       0.018200
     39 H12          4.4030     0.9930    11.3700 hc         1 2XL       0.002367
     40 H13          5.3360     2.4890    11.2270 hc         1 2XL       0.002367
     41 H14          6.1520     0.9230    11.1120 hc         1 2XL       0.002367
     42 H15          7.7020     0.4950     6.0270 h1         1 2XL       0.059200
     43 H16          7.2830     0.5030     7.7460 h1         1 2XL       0.059200
     44 H17         12.8060    -3.8030     7.3070 hn         1 2XL       0.276550
     45 H18         12.3960    -3.7960     8.9910 hn         1 2XL       0.276550
     46 H19         13.0200    -0.8440     8.2410 ha         1 2XL       0.131000
     47 H20         12.5240     1.5380     8.1200 hn         1 2XL       0.276550
     48 H21         10.9370     2.1210     7.7350 hn         1 2XL       0.276550
@<TRIPOS>BOND
     1     1     2 1   
     2     1    28 1   
     3     1    29 1   
     4     1    30 1   
     5     2     3 1   
     6     3     4 ar  
     7     3     7 ar  
     8     4     5 ar  
     9     4     6 1   
    10     5     9 ar  
    11     5    31 1   
    12     6    32 1   
    13     7     8 ar  
    14     7    33 1   
    15     8     9 ar  
    16     8    34 1   
    17     9    10 1   
    18    10    11 2   
    19    10    12 1   
    20    11    17 1   
    21    12    13 1   
    22    13    14 1   
    23    13    17 2   
    24    14    15 1   
    25    14    35 1   
    26    14    36 1   
    27    15    16 1   
    28    15    37 1   
    29    15    38 1   
    30    16    39 1   
    31    16    40 1   
    32    16    41 1   
    33    17    18 1   
    34    18    19 1   
    35    18    42 1   
    36    18    43 1   
    37    19    20 1   
    38    20    21 ar  
    39    20    22 ar  
    40    21    26 ar  
    41    22    23 ar  
    42    23    24 1   
    43    23    25 ar  
    44    24    44 1   
    45    24    45 1   
    46    25    26 ar  
    47    25    46 1   
    48    26    27 1   
    49    27    47 1   
    50    27    48 1   
@<TRIPOS>SUBSTRUCTURE
     1 2XL         1 TEMP              0 ****  ****    0 ROOT
