@<TRIPOS>MOLECULE
molecule
   59    61     1     0     0
SMALL
bcc


@<TRIPOS>ATOM
      1 OAE          0.0000     0.0000     0.0000 oh         1 2XM      -0.598800
      2 CAL          1.4290     0.0000     0.0000 c3         1 2XM       0.143400
      3 CAN          1.9400     0.0000     1.4430 c3         1 2XM       0.138400
      4 OAU          1.5620    -1.2200     2.0820 os         1 2XM      -0.299900
      5 CBC          1.9400    -1.3810     3.3780 ca         1 2XM       0.116100
      6 CAI          2.6580    -0.3880     4.0180 ca         1 2XM      -0.150000
      7 CBB          1.6000    -2.5460     4.0640 ca         1 2XM       0.134100
      8 OAT          0.8910    -3.5210     3.4340 os         1 2XM      -0.295900
      9 CAM          0.5760    -4.6880     4.1960 c3         1 2XM       0.138400
     10 CAK         -0.2190    -5.6650     3.3280 c3         1 2XM       0.143400
     11 OAD          0.6030    -6.1250     2.2530 oh         1 2XM      -0.597800
     12 CAG          1.9840    -2.7130     5.3860 ca         1 2XM      -0.197000
     13 CAF          2.7040    -1.7280     6.0270 ca         1 2XM      -0.111000
     14 CAZ          3.0430    -0.5570     5.3490 ca         1 2XM      -0.130500
     15 CBF          3.8160     0.5010     6.0350 cc         1 2XM       0.544900
     16 NAS          4.1880     1.6300     5.5050 nd         1 2XM      -0.674000
     17 SAW          4.3740     0.4390     7.7050 ss         1 2XM      -0.239300
     18 CBE          5.1050     2.0310     7.5150 cc         1 2XM      -0.113700
     19 CAO          5.8590     2.7900     8.5770 c3         1 2XM      -0.004100
     20 CAJ          4.8840     3.6610     9.3700 c3         1 2XM      -0.082400
     21 CAA          5.6500     4.4310    10.4480 c3         1 2XM      -0.093100
     22 CBD          4.8700     2.4520     6.2690 cd         1 2XM       0.371600
     23 CAP          5.3620     3.7870     5.7700 c3         1 2XM      -0.028600
     24 SAV          7.0120     3.5920     5.0500 ss         1 2XM      -0.239400
     25 C2           7.3320     5.2550     4.5640 ca         1 2XM       0.835300
     26 N3           8.4830     5.5440     3.9740 nb         1 2XM      -0.811500
     27 N1           6.4120     6.1820     4.7900 nb         1 2XM      -0.811500
     28 C6           6.6200     7.4480     4.4360 ca         1 2XM       0.749700
     29 NAB          5.6530     8.4130     4.6780 nv         1 2XM      -1.043500
     30 C5           7.8200     7.7910     3.8200 ca         1 2XM      -0.469600
     31 C4           8.7580     6.7900     3.5930 ca         1 2XM       0.749700
     32 NAC          9.9670     7.0850     2.9820 nv         1 2XM      -1.043500
     33 H1          -0.3140     0.0990    -0.8830 ho         1 2XM       0.401000
     34 H2           1.7900    -0.8840    -0.5110 h1         1 2XM       0.033200
     35 H3           1.7900     0.8840    -0.5110 h1         1 2XM       0.033200
     36 H4           3.0190     0.0890     1.4440 h1         1 2XM       0.046700
     37 H5           1.5080     0.8370     1.9790 h1         1 2XM       0.046700
     38 H6           2.9200     0.5200     3.4880 ha         1 2XM       0.164000
     39 H7           1.4930    -5.1620     4.5250 h1         1 2XM       0.042700
     40 H8          -0.0160    -4.4070     5.0590 h1         1 2XM       0.042700
     41 H9          -1.0910    -5.1630     2.9270 h1         1 2XM       0.033700
     42 H10         -0.5330    -6.5090     3.9300 h1         1 2XM       0.033700
     43 H11          0.1480    -6.7990     1.7760 ho         1 2XM       0.402000
     44 H12          1.7200    -3.6210     5.9150 ha         1 2XM       0.141000
     45 H13          3.0030    -1.8610     7.0600 ha         1 2XM       0.135000
     46 H14          6.6070     3.4180     8.1100 hc         1 2XM       0.061200
     47 H15          6.3420     2.0890     9.2470 hc         1 2XM       0.061200
     48 H16          4.4010     4.3620     8.7000 hc         1 2XM       0.047200
     49 H17          4.1360     3.0330     9.8370 hc         1 2XM       0.047200
     50 H18          6.1560     3.7310    11.1010 hc         1 2XM       0.035033
     51 H19          6.3800     5.0800     9.9790 hc         1 2XM       0.035033
     52 H20          4.9560     5.0280    11.0270 hc         1 2XM       0.035033
     53 H21          4.6810     4.1630     5.0160 h1         1 2XM       0.091200
     54 H22          5.4080     4.4860     6.5960 h1         1 2XM       0.091200
     55 H23          4.9460     8.5950     3.9930 hn         1 2XM       0.441300
     56 H24          5.6530     8.9150     5.5440 hn         1 2XM       0.441300
     57 H25          8.0160     8.8130     3.5210 ha         1 2XM       0.145000
     58 H26         10.1690     8.0240     2.6990 hn         1 2XM       0.441300
     59 H27         10.6380     6.3600     2.8230 hn         1 2XM       0.441300
@<TRIPOS>BOND
     1    19    18 1   
     2    19    20 1   
     3    17    18 1   
     4    17    15 1   
     5    21    20 1   
     6    10    11 1   
     7    10     9 1   
     8    18    22 2   
     9    13    12 ar  
    10    13    14 ar  
    11    12     7 ar  
    12    32    31 1   
    13    30    31 ar  
    14    30    28 ar  
    15    31    26 ar  
    16    15    14 1   
    17    15    16 2   
    18    29    28 1   
    19    28    27 ar  
    20    14     6 ar  
    21    26    25 ar  
    22     9     8 1   
    23    27    25 ar  
    24    25    24 1   
    25     7     8 1   
    26     7     5 ar  
    27    22    16 1   
    28    22    23 1   
    29    24    23 1   
    30     6     5 ar  
    31     5     4 1   
    32     4     3 1   
    33     3     2 1   
    34     2     1 1   
    35     1    33 1   
    36     2    34 1   
    37     2    35 1   
    38     3    36 1   
    39     3    37 1   
    40     6    38 1   
    41     9    39 1   
    42     9    40 1   
    43    10    41 1   
    44    10    42 1   
    45    11    43 1   
    46    12    44 1   
    47    13    45 1   
    48    19    46 1   
    49    19    47 1   
    50    20    48 1   
    51    20    49 1   
    52    21    50 1   
    53    21    51 1   
    54    21    52 1   
    55    23    53 1   
    56    23    54 1   
    57    29    55 1   
    58    29    56 1   
    59    30    57 1   
    60    32    58 1   
    61    32    59 1   
@<TRIPOS>SUBSTRUCTURE
     1 2XM         1 TEMP              0 ****  ****    0 ROOT
