@<TRIPOS>MOLECULE
molecule
   59    61     1     0     0
SMALL
bcc


@<TRIPOS>ATOM
      1 CAD          0.0000     0.0000     0.0000 c3         1 2XN      -0.249300
      2 SBG          1.8140     0.0000     0.0000 s6         1 2XN       1.324900
      3 OAG          2.3120     0.0000     1.3320 o          1 2XN      -0.629300
      4 OAH          2.3130    -0.9110    -0.9690 o          1 2XN      -0.629300
      5 NAR          2.2260     1.4920    -0.5900 n7         1 2XN      -0.912100
      6 CAM          1.8890     2.6990     0.1680 c3         1 2XN       0.238800
      7 CAN          2.6850     3.8840    -0.3800 c3         1 2XN       0.127400
      8 OAT          2.2750     4.1540    -1.7230 os         1 2XN      -0.318900
      9 CBC          2.8900     5.1860    -2.3600 ca         1 2XN       0.111100
     10 CAL          3.8640     5.9200    -1.7090 ca         1 2XN      -0.176000
     11 CBB          2.5420     5.5000    -3.6730 ca         1 2XN       0.131100
     12 OAS          1.5870     4.7740    -4.3130 os         1 2XN      -0.313900
     13 CAA          1.2800     5.1510    -5.6570 c3         1 2XN       0.125700
     14 CAJ          3.1670     6.5510    -4.3260 ca         1 2XN      -0.197000
     15 CAI          4.1370     7.2900    -3.6790 ca         1 2XN      -0.075000
     16 CAY          4.4930     6.9780    -2.3670 ca         1 2XN      -0.128500
     17 CBD          5.5360     7.7650    -1.6760 cc         1 2XN       0.541900
     18 NAQ          6.1840     8.7730    -2.1860 nc         1 2XN      -0.668000
     19 SAV          6.0950     7.4960    -0.0270 ss         1 2XN      -0.247300
     20 CAZ          7.2200     8.8420    -0.1940 cd         1 2XN      -0.115700
     21 CAB          8.1750     9.3320     0.8640 c3         1 2XN      -0.011800
     22 CBE          7.0800     9.3550    -1.4200 cc         1 2XN       0.376600
     23 CBF          7.8960    10.5300    -1.8950 c3         1 2XN      -0.019900
     24 CAC          8.9740    10.0430    -2.8650 c3         1 2XN      -0.074100
     25 SAU          6.8160    11.7130    -2.7360 ss         1 2XN      -0.210400
     26 C2           7.9660    13.0140    -3.0410 ca         1 2XN       0.859300
     27 N3           7.5530    14.1080    -3.6630 nb         1 2XN      -0.849000
     28 N1           9.2200    12.8740    -2.6350 nb         1 2XN      -0.849000
     29 C6          10.1160    13.8360    -2.8470 ca         1 2XN       0.767700
     30 NAE         11.4250    13.6820    -2.4210 nv         1 2XN      -1.003000
     31 C5           9.7200    14.9970    -3.5040 ca         1 2XN      -0.535600
     32 C4           8.3930    15.1110    -3.9090 ca         1 2XN       0.767700
     33 NAF          7.9530    16.2520    -4.5610 nv         1 2XN      -1.003000
     34 H1          -0.3610     0.6110     0.8190 h1         1 2XN       0.098033
     35 H2          -0.3610    -1.0140     0.1200 h1         1 2XN       0.098033
     36 H3          -0.3610     0.4030    -0.9380 h1         1 2XN       0.098033
     37 H4           2.7020     1.5690    -1.4680 hn         1 2XN       0.468800
     38 H5           0.8290     2.9010     0.0730 h1         1 2XN       0.057700
     39 H6           2.1360     2.5500     1.2130 h1         1 2XN       0.057700
     40 H7           3.7420     3.6470    -0.3660 h1         1 2XN       0.046700
     41 H8           2.5030     4.7570     0.2350 h1         1 2XN       0.046700
     42 H9           4.1380     5.6740    -0.6900 ha         1 2XN       0.144000
     43 H10          2.1700     5.0650    -6.2690 h1         1 2XN       0.043367
     44 H11          0.9270     6.1750    -5.6740 h1         1 2XN       0.043367
     45 H12          0.5090     4.4970    -6.0480 h1         1 2XN       0.043367
     46 H13          2.8930     6.7930    -5.3450 ha         1 2XN       0.147000
     47 H14          4.6230     8.1110    -4.1920 ha         1 2XN       0.162000
     48 H15          8.0370     8.7540     1.7700 hc         1 2XN       0.052033
     49 H16          7.9800    10.3770     1.0700 hc         1 2XN       0.052033
     50 H17          9.1930     9.2160     0.5140 hc         1 2XN       0.052033
     51 H18          8.3650    11.0110    -1.0460 h1         1 2XN       0.090700
     52 H19          9.9350    10.4440    -2.5680 hc         1 2XN       0.047367
     53 H20          9.0130     8.9600    -2.8470 hc         1 2XN       0.047367
     54 H21          8.7360    10.3790    -3.8670 hc         1 2XN       0.047367
     55 H22         11.7020    12.8440    -1.9480 hn         1 2XN       0.441050
     56 H23         12.0930    14.4090    -2.5840 hn         1 2XN       0.441050
     57 H24         10.4270    15.7970    -3.6900 ha         1 2XN       0.135000
     58 H25          8.5910    17.0010    -4.7430 hn         1 2XN       0.441050
     59 H26          6.9980    16.3270    -4.8500 hn         1 2XN       0.441050
@<TRIPOS>BOND
     1     1     2 1
     2     4     2 2
     3     2     3 2
     4     2     5 1
     5     5     6 1
     6     6     7 1
     7     7     8 1
     8     8     9 1
     9    24    23 1
    10    13    12 1
    11     9    10 ar
    12     9    11 ar
    13    10    16 ar
    14    12    11 1
    15    11    14 ar
    16    18    22 1
    17    18    17 2
    18    23    25 1
    19    23    22 1
    20    25    26 1
    21    16    17 1
    22    16    15 ar
    23    26    27 ar
    24    26    28 ar
    25    27    32 ar
    26    28    29 ar
    27    22    20 2
    28    32    33 1
    29    32    31 ar
    30    17    19 1
    31    29    31 ar
    32    29    30 1
    33    14    15 ar
    34    20    19 1
    35    20    21 1
    36     1    34 1
    37     1    35 1
    38     1    36 1
    39     5    37 1
    40     6    38 1
    41     6    39 1
    42     7    40 1
    43     7    41 1
    44    10    42 1
    45    13    43 1
    46    13    44 1
    47    13    45 1
    48    14    46 1
    49    15    47 1
    50    21    48 1
    51    21    49 1
    52    21    50 1
    53    23    51 1
    54    24    52 1
    55    24    53 1
    56    24    54 1
    57    30    55 1
    58    30    56 1
    59    31    57 1
    60    33    58 1
    61    33    59 1
@<TRIPOS>SUBSTRUCTURE
     1 2XN         1 TEMP              0 ****  ****    0 ROOT
