@<TRIPOS>MOLECULE
2XN
   59    61     1     0     0
SMALL
bcc


@<TRIPOS>ATOM
      1 CAD          0.0000     0.0000     0.0000 c3         1 2XN       0.009700
      2 SBG          1.8140     0.0000     0.0000 s6         1 2XN       0.953900
      3 OAG          2.3120     0.0000     1.3320 o          1 2XN      -0.585300
      4 OAH          2.3130    -0.9110    -0.9690 o          1 2XN      -0.585300
      5 NAR          2.2260     1.4920    -0.5900 n7         1 2XN      -0.597100
      6 CAM          1.8890     2.6990     0.1680 c3         1 2XN       0.227800
      7 CAN          2.6850     3.8840    -0.3800 c3         1 2XN       0.186400
      8 OAT          2.2750     4.1540    -1.7230 os         1 2XN      -0.297900
      9 CBC          2.8900     5.1860    -2.3600 ca         1 2XN       0.114100
     10 CAL          3.8640     5.9200    -1.7090 ca         1 2XN      -0.165000
     11 CBB          2.5420     5.5000    -3.6730 ca         1 2XN       0.132100
     12 OAS          1.5870     4.7740    -4.3130 os         1 2XN      -0.295900
     13 CAA          1.2800     5.1510    -5.6570 c3         1 2XN       0.241700
     14 CAJ          3.1670     6.5510    -4.3260 ca         1 2XN      -0.184000
     15 CAI          4.1370     7.2900    -3.6790 ca         1 2XN      -0.051000
     16 CAY          4.4930     6.9780    -2.3670 ca         1 2XN      -0.129500
     17 CBD          5.5360     7.7650    -1.6760 cc         1 2XN       0.529900
     18 NAQ          6.1840     8.7730    -2.1860 nd         1 2XN      -0.534000
     19 SAV          6.0950     7.4960    -0.0270 ss         1 2XN      -0.337300
     20 CAZ          7.2200     8.8420    -0.1940 cc         1 2XN      -0.084700
     21 CAB          8.1750     9.3320     0.8640 c3         1 2XN       0.109200
     22 CBE          7.0800     9.3550    -1.4200 cd         1 2XN       0.335600
     23 CBF          7.8960    10.5300    -1.8950 c3         1 2XN       0.044100
     24 CAC          8.9740    10.0430    -2.8650 c3         1 2XN      -0.000100
     25 SAU          6.8160    11.7130    -2.7360 ss         1 2XN      -0.366400
     26 C2           7.9660    13.0140    -3.0410 ca         1 2XN       0.833300
     27 N3           7.5530    14.1080    -3.6630 nb         1 2XN      -0.747000
     28 N1           9.2200    12.8740    -2.6350 nb         1 2XN      -0.747000
     29 C6          10.1160    13.8360    -2.8470 ca         1 2XN       0.583200
     30 NAE         11.4250    13.6820    -2.4210 nv         1 2XN      -0.511000
     31 C5           9.7200    14.9970    -3.5040 ca         1 2XN      -0.530600
     32 C4           8.3930    15.1110    -3.9090 ca         1 2XN       0.583200
     33 NAF          7.9530    16.2520    -4.5610 nv         1 2XN      -0.511000
     34 H1          -0.3610     0.6110     0.8190 h1         1 2XN       0.062367
     35 H2          -0.3610    -1.0140     0.1200 h1         1 2XN       0.062367
     36 H3          -0.3610     0.4030    -0.9380 h1         1 2XN       0.062367
     37 H4           2.7020     1.5690    -1.4680 hn         1 2XN       0.364800
     38 H5           0.8290     2.9010     0.0730 h1         1 2XN       0.020200
     39 H6           2.1360     2.5500     1.2130 h1         1 2XN       0.020200
     40 H7           3.7420     3.6470    -0.3660 h1         1 2XN       0.011200
     41 H8           2.5030     4.7570     0.2350 h1         1 2XN       0.011200
     42 H9           4.1380     5.6740    -0.6900 ha         1 2XN       0.132000
     43 H10          2.1700     5.0650    -6.2690 h1         1 2XN      -0.001633
     44 H11          0.9270     6.1750    -5.6740 h1         1 2XN      -0.001633
     45 H12          0.5090     4.4970    -6.0480 h1         1 2XN      -0.001633
     46 H13          2.8930     6.7930    -5.3450 ha         1 2XN       0.126000
     47 H14          4.6230     8.1110    -4.1920 ha         1 2XN       0.130000
     48 H15          8.0370     8.7540     1.7700 hc         1 2XN       0.015367
     49 H16          7.9800    10.3770     1.0700 hc         1 2XN       0.015367
     50 H17          9.1930     9.2160     0.5140 hc         1 2XN       0.015367
     51 H18          8.3650    11.0110    -1.0460 h1         1 2XN       0.065700
     52 H19          9.9350    10.4440    -2.5680 hc         1 2XN       0.018700
     53 H20          9.0130     8.9600    -2.8470 hc         1 2XN       0.018700
     54 H21          8.7360    10.3790    -3.8670 hc         1 2XN       0.018700
     55 H22         11.7020    12.8440    -1.9480 hn         1 2XN       0.270800
     56 H23         12.0930    14.4090    -2.5840 hn         1 2XN       0.270800
     57 H24         10.4270    15.7970    -3.6900 ha         1 2XN       0.128000
     58 H25          8.5910    17.0010    -4.7430 hn         1 2XN       0.270800
     59 H26          6.9980    16.3270    -4.8500 hn         1 2XN       0.270800
@<TRIPOS>BOND
     1     1     2 1   
     2     1    34 1   
     3     1    35 1   
     4     1    36 1   
     5     2     3 2   
     6     2     4 2   
     7     2     5 1   
     8     5     6 1   
     9     5    37 1   
    10     6     7 1   
    11     6    38 1   
    12     6    39 1   
    13     7     8 1   
    14     7    40 1   
    15     7    41 1   
    16     8     9 1   
    17     9    10 ar  
    18     9    11 ar  
    19    10    16 ar  
    20    10    42 1   
    21    11    12 1   
    22    11    14 ar  
    23    12    13 1   
    24    13    43 1   
    25    13    44 1   
    26    13    45 1   
    27    14    15 ar  
    28    14    46 1   
    29    15    16 ar  
    30    15    47 1   
    31    16    17 1   
    32    17    18 2   
    33    17    19 1   
    34    18    22 1   
    35    19    20 1   
    36    20    21 1   
    37    20    22 2   
    38    21    48 1   
    39    21    49 1   
    40    21    50 1   
    41    22    23 1   
    42    23    24 1   
    43    23    25 1   
    44    23    51 1   
    45    24    52 1   
    46    24    53 1   
    47    24    54 1   
    48    25    26 1   
    49    26    27 ar  
    50    26    28 ar  
    51    27    32 ar  
    52    28    29 ar  
    53    29    30 1   
    54    29    31 ar  
    55    30    55 1   
    56    30    56 1   
    57    31    32 ar  
    58    31    57 1   
    59    32    33 1   
    60    33    58 1   
    61    33    59 1   
@<TRIPOS>SUBSTRUCTURE
     1 2XN         1 TEMP              0 ****  ****    0 ROOT
