@<TRIPOS>MOLECULE
molecule
   19    20     1     0     0
SMALL
bcc


@<TRIPOS>ATOM
      1 SAH          0.0000     0.0000     0.0000 sh         1 2XO      -0.392900
      2 CAI          1.8140     0.0000     0.0000 c3         1 2XO       0.037400
      3 CAJ          3.0010     0.0000     3.4320 ca         1 2XO       0.090400
      4 NAK          2.5640    -0.6060     2.2980 nc         1 2XO      -0.580100
      5 CAL          2.3150     0.2930     1.3900 cd         1 2XO       0.428800
      6 NAM          2.5760     1.5360     1.8790 na         1 2XO      -0.255300
      7 CAN          3.0080     1.3820     3.1820 ca         1 2XO      -0.087200
      8 CAO          3.4130     2.2630     4.1750 ca         1 2XO      -0.130000
      9 CAP          3.7950     1.7740     5.4070 ca         1 2XO      -0.110000
     10 CAQ          3.7780     0.4090     5.6570 ca         1 2XO      -0.147000
     11 CAR          3.4000    -0.4730     4.6850 ca         1 2XO      -0.066000
     12 H1          -0.4430    -0.4220    -1.1780 hs         1 2XO       0.216800
     13 H2           2.1750    -0.9710    -0.3170 h1         1 2XO       0.076200
     14 H3           2.1750     0.7600    -0.6820 h1         1 2XO       0.076200
     15 H5           2.5970     2.3840     1.3490 hn         1 2XO       0.303700
     16 H6           3.4280     3.3290     3.9850 ha         1 2XO       0.127000
     17 H7           4.0970     2.4610     6.1880 ha         1 2XO       0.133000
     18 H8           4.0800     0.0380     6.6290 ha         1 2XO       0.134000
     19 H9           3.3910    -1.5370     4.8910 ha         1 2XO       0.143000
@<TRIPOS>BOND
     1     8     9 ar
     2     8     7 ar
     3     9    10 ar
     4     7     6 1
     5     7     3 ar
     6     6     5 1
     7    10    11 ar
     8     1     2 1
     9     3    11 ar
    10     3     4 1
    11     5     2 1
    12     5     4 2
    13     1    12 1
    14     2    13 1
    15     2    14 1
    16     6    15 1
    17     8    16 1
    18     9    17 1
    19    10    18 1
    20    11    19 1
@<TRIPOS>SUBSTRUCTURE
     1 2XO         1 TEMP              0 ****  ****    0 ROOT
