@<TRIPOS>MOLECULE
2XO
   19    20     1     0     0
SMALL
bcc


@<TRIPOS>ATOM
      1 SAH         0.3330    0.8710   -0.2470 sh        1 2XO     -0.374900
      2 CAI         1.7140   -0.2010    0.0790 c3        1 2XO     -0.007600
      3 CAJ         3.0590   -0.1080    3.4640 ca        1 2XO      0.062400
      4 NAK         2.6310   -0.8380    2.3390 nc        1 2XO     -0.552100
      5 CAL         2.2250    0.0880    1.4430 cd        1 2XO      0.411800
      6 NAM         2.3950    1.4160    1.9090 na        1 2XO     -0.268300
      7 CAN         2.8930    1.3140    3.2090 ca        1 2XO     -0.070200
      8 CAO         3.2400    2.2720    4.1710 ca        1 2XO     -0.134000
      9 CAP         3.7480    1.8090    5.3750 ca        1 2XO     -0.110000
     10 CAQ         3.9170    0.4360    5.6310 ca        1 2XO     -0.154000
     11 CAR         3.5820   -0.5300    4.6960 ca        1 2XO     -0.067000
     12 H1          0.3070    0.7680   -1.5650 hs        1 2XO      0.211800
     13 H2          1.3960   -1.2720    0.0070 h1        1 2XO      0.092700
     14 H3          2.5290   -0.0290   -0.6680 h1        1 2XO      0.092700
     15 H5          2.0080    2.2200    1.4860 hn        1 2XO      0.315700
     16 H6          3.1130    3.3450    3.9780 ha        1 2XO      0.137000
     17 H7          4.0290    2.5340    6.1550 ha        1 2XO      0.132000
     18 H8          4.3270    0.1260    6.6050 ha        1 2XO      0.133000
     19 H9          3.7180   -1.6010    4.9030 ha        1 2XO      0.148000
@<TRIPOS>BOND
     1    1    2 1   
     2    1   12 1   
     3    2    5 1   
     4    2   13 1   
     5    2   14 1   
     6    3    4 1   
     7    3    7 ar  
     8    3   11 ar  
     9    4    5 2   
    10    5    6 1   
    11    6    7 1   
    12    6   15 1   
    13    7    8 ar  
    14    8    9 ar  
    15    8   16 1   
    16    9   10 ar  
    17    9   17 1   
    18   10   11 ar  
    19   10   18 1   
    20   11   19 1   
@<TRIPOS>SUBSTRUCTURE
     1 2XO         1 TEMP              0 ****  ****    0 ROOT
