@<TRIPOS>MOLECULE
molecule
   16    15     1     0     0
SMALL
bcc


@<TRIPOS>ATOM
      1 O3           0.0000     0.0000     0.0000 o          1 2XP      -0.806800
      2 C1           1.2140     0.0000     0.0000 c          1 2XP       0.802300
      3 O2           1.8870     0.0000     1.1670 o          1 2XP      -0.806800
      4 C2           1.9550    -0.0060    -1.2840 ce         1 2XP       0.363300
      5 N            3.2350    -0.0060    -1.2840 n2         1 2XP      -0.759100
      6 C3           1.2020    -0.0120    -2.5890 c3         1 2XP      -0.107500
      7 C4           2.1810    -0.0180    -3.7340 c2         1 2XP      -0.290200
      8 C5           2.1140     0.9280    -4.6730 ce         1 2XP      -0.232200
      9 C6           1.1820     2.0440    -4.5220 c          1 2XP       0.636100
     10 O1           1.0520     2.8510    -5.4190 o          1 2XP      -0.600100
     11 H2           3.7360    -0.0110    -2.1500 hn         1 2XP       0.373400
     12 H3           0.5790    -0.8970    -2.6420 hc         1 2XP       0.077700
     13 H4           2.3360     0.6000    -2.8580 ha         1 2XP       0.182000
     14 H5           1.0720     0.8390    -4.9550 ha         1 2XP       0.028000
     15 H6           0.6430     2.1760    -3.5920 h4         1 2XP       0.061200
     16 H7           0.5790     0.8720    -2.6500 hc         1 2XP       0.077700
@<TRIPOS>BOND
     1     1     2 1
     2     3     2 1
     3     2     4 1
     4     5     4 2
     5    10     9 2
     6     4     6 1
     7     9     8 1
     8     6     7 1
     9     8     7 2
    10     5    11 1
    11     6    12 1
    12     7    13 1
    13     8    14 1
    14     9    15 1
    15     6    16 1
@<TRIPOS>SUBSTRUCTURE
     1 2XP         1 TEMP              0 ****  ****    0 ROOT
