@<TRIPOS>MOLECULE
2XP
   16    15     1     0     0
SMALL
bcc


@<TRIPOS>ATOM
      1 O3           0.0000     0.0000     0.0000 o          1 2XP      -0.876300
      2 C1           1.2140     0.0000     0.0000 c          1 2XP       0.854300
      3 O2           1.8870     0.0000     1.1670 o          1 2XP      -0.876300
      4 C2           1.9550    -0.0060    -1.2840 ce         1 2XP       0.323300
      5 N            3.2350    -0.0060    -1.2840 n2         1 2XP      -0.701100
      6 C3           1.2020    -0.0120    -2.5890 c3         1 2XP      -0.052500
      7 C4           2.1810    -0.0180    -3.7340 c2         1 2XP       0.004800
      8 C5           2.1140     0.9280    -4.6730 ce         1 2XP      -0.341200
      9 C6           1.1820     2.0440    -4.5220 c          1 2XP       0.663100
     10 O1           1.0520     2.8510    -5.4190 o          1 2XP      -0.608100
     11 H2           3.7360    -0.0020    -0.4170 hn         1 2XP       0.341400
     12 H3           0.5790     0.8720    -2.6500 hc         1 2XP       0.039200
     13 H4           2.9120    -0.8130    -3.8180 ha         1 2XP       0.098000
     14 H5           2.7440     0.8640    -5.5530 ha         1 2XP       0.111000
     15 H6           0.6360     2.1710    -3.5950 h4         1 2XP      -0.018800
     16 H7           0.5790    -0.8970    -2.6420 hc         1 2XP       0.039200
@<TRIPOS>BOND
     1     1     2 1   
     2     2     3 1   
     3     2     4 1   
     4     4     5 2   
     5     4     6 1   
     6     5    11 1   
     7     6     7 1   
     8     6    12 1   
     9     6    16 1   
    10     7     8 2   
    11     7    13 1   
    12     8     9 1   
    13     8    14 1   
    14     9    10 2   
    15     9    15 1   
@<TRIPOS>SUBSTRUCTURE
     1 2XP         1 TEMP              0 ****  ****    0 ROOT
