@<TRIPOS>MOLECULE
2XQ
   57    60     1     0     0
SMALL
bcc


@<TRIPOS>ATOM
      1 CAH        -0.8310   -2.5430    2.0110 ca        1 2XQ     -0.060000
      2 CAE         0.4980   -2.9590    1.9770 ca        1 2XQ     -0.237300
      3 CAG         0.8610   -4.1140    2.7010 ca        1 2XQ      0.448200
      4 NAS        -0.0140   -4.8380    3.4280 nb        1 2XQ     -0.643000
      5 CAM        -1.2930   -4.4250    3.4560 ca        1 2XQ      0.437200
      6 CAX        -1.7550   -3.2870    2.7600 ca        1 2XQ     -0.316600
      7 CAQ        -3.1720   -2.8590    2.8740 c3        1 2XQ      0.184100
      8 NAT        -4.0370   -3.5380    1.8480 n4        1 2XQ     -0.772000
      9 CAO        -5.3020   -2.7870    1.5930 c3        1 2XQ      0.110800
     10 CAN        -6.1570   -3.4490    0.5250 c3        1 2XQ     -0.157400
     11 CAP        -7.4290   -2.6430    0.2890 c3        1 2XQ      0.137400
     12 OAU        -8.3770   -3.4270   -0.4370 os        1 2XQ     -0.316900
     13 CBD        -9.1110   -4.2920    0.3720 ca        1 2XQ      0.114100
     14 CAI       -10.2050   -3.8090    1.0970 ca        1 2XQ     -0.158000
     15 CAF       -10.9810   -4.6700    1.8860 ca        1 2XQ     -0.091000
     16 CAL       -10.6790   -6.0250    2.0070 ca        1 2XQ     -0.117000
     17 CBF        -9.5840   -6.4860    1.2820 ca        1 2XQ      0.079100
     18 OAW        -9.0810   -7.7860    1.2860 os        1 2XQ     -0.190200
     19 CBG        -8.7990   -5.6550    0.4220 ca        1 2XQ     -0.127800
     20 CAZ        -7.8030   -6.5310   -0.1760 cc        1 2XQ     -0.070400
     21 CAA        -6.8400   -6.1630   -1.2170 c3        1 2XQ     -0.047900
     22 CBE        -7.9840   -7.7740    0.3970 cd        1 2XQ     -0.034100
     23 CAR        -7.2310   -9.0420    0.3130 c3        1 2XQ      0.196600
     24 OAV        -5.8630   -8.8690    0.7280 os        1 2XQ     -0.319900
     25 CBC        -5.6930   -8.5450    2.0600 ca        1 2XQ      0.101100
     26 CAK        -6.0150   -9.4400    3.0900 ca        1 2XQ     -0.101000
     27 CAJ        -5.7540   -9.1190    4.4140 ca        1 2XQ     -0.123000
     28 CAY        -5.1670   -7.8820    4.7470 ca        1 2XQ      0.137900
     29 FAB        -4.9240   -7.5600    6.0340 f         1 2XQ     -0.103900
     30 CBA        -4.8330   -6.9690    3.7190 ca        1 2XQ      0.030900
     31 FAC        -4.2810   -5.7620    4.0000 f         1 2XQ     -0.156900
     32 CBB        -5.0890   -7.3090    2.3660 ca        1 2XQ      0.083900
     33 FAD        -4.7390   -6.4230    1.4010 f         1 2XQ     -0.151900
     34 HAH        -1.1440   -1.6370    1.4690 ha        1 2XQ      0.145000
     35 HAE         1.2540   -2.4010    1.4070 ha        1 2XQ      0.171000
     36 HAG         1.9070   -4.4790    2.7040 h4        1 2XQ      0.052100
     37 HAM        -1.9820   -5.0340    4.0740 h4        1 2XQ      0.039100
     38 HAQ1       -3.2600   -1.7440    2.7220 hx        1 2XQ      0.108200
     39 HAQ2       -3.5920   -3.1240    3.8890 hx        1 2XQ      0.108200
     40 HAT        -3.5150   -3.6290    0.9690 hn        1 2XQ      0.457800
     41 HAO1       -5.0290   -1.7410    1.2730 hx        1 2XQ      0.100700
     42 HAO2       -5.8680   -2.7290    2.5670 hx        1 2XQ      0.100700
     43 HAN1       -5.5950   -3.5320   -0.4440 hc        1 2XQ      0.084200
     44 HAN2       -6.4390   -4.4960    0.8310 hc        1 2XQ      0.084200
     45 HAP1       -7.2320   -1.7710   -0.3920 h1        1 2XQ      0.067700
     46 HAP2       -7.8670   -2.2850    1.2570 h1        1 2XQ      0.067700
     47 HAI       -10.4630   -2.7410    1.0360 ha        1 2XQ      0.153000
     48 HAF       -11.8490   -4.2610    2.4280 ha        1 2XQ      0.154000
     49 HAL       -11.2720   -6.7010    2.6390 ha        1 2XQ      0.166000
     50 HAA1       -6.9410   -6.8490   -2.0980 hc        1 2XQ      0.057033
     51 HAA2       -5.7920   -6.2490   -0.8300 hc        1 2XQ      0.057033
     52 HAA3       -7.0190   -5.1140   -1.5620 hc        1 2XQ      0.057033
     53 HAR1       -7.7220   -9.8430    0.9270 h1        1 2XQ      0.094200
     54 HAR2       -7.1170   -9.3710   -0.7580 h1        1 2XQ      0.094200
     55 HAK        -6.4760  -10.4090    2.8360 ha        1 2XQ      0.175000
     56 HAJ        -6.0010   -9.8250    5.2240 ha        1 2XQ      0.181000
     57 HAT2       -4.2610   -4.4940    2.1710 hn        1 2XQ      0.457800
@<TRIPOS>BOND
     1    1    2 ar  
     2    1    6 ar  
     3    1   34 1   
     4    2    3 ar  
     5    2   35 1   
     6    3    4 ar  
     7    3   36 1   
     8    4    5 ar  
     9    5    6 ar  
    10    5   37 1   
    11    6    7 1   
    12    7    8 1   
    13    7   38 1   
    14    7   39 1   
    15    8    9 1   
    16    8   40 1   
    17    8   57 1   
    18    9   10 1   
    19    9   41 1   
    20    9   42 1   
    21   10   11 1   
    22   10   43 1   
    23   10   44 1   
    24   11   12 1   
    25   11   45 1   
    26   11   46 1   
    27   12   13 1   
    28   13   14 ar  
    29   13   19 ar  
    30   14   15 ar  
    31   14   47 1   
    32   15   16 ar  
    33   15   48 1   
    34   16   17 ar  
    35   16   49 1   
    36   17   18 1   
    37   17   19 ar  
    38   18   22 1   
    39   19   20 1   
    40   20   21 1   
    41   20   22 2   
    42   21   50 1   
    43   21   51 1   
    44   21   52 1   
    45   22   23 1   
    46   23   24 1   
    47   23   53 1   
    48   23   54 1   
    49   24   25 1   
    50   25   26 ar  
    51   25   32 ar  
    52   26   27 ar  
    53   26   55 1   
    54   27   28 ar  
    55   27   56 1   
    56   28   29 1   
    57   28   30 ar  
    58   30   31 1   
    59   30   32 ar  
    60   32   33 1   
@<TRIPOS>SUBSTRUCTURE
     1 2XQ         1 TEMP              0 ****  ****    0 ROOT
