@<TRIPOS>MOLECULE
molecule
   21    22     1     0     0
SMALL
bcc


@<TRIPOS>ATOM
      1 CAH          0.0000     0.0000     0.0000 c3         1 2XR      -0.057000
      2 CAI          1.5070     0.0000     0.0000 c          1 2XR       0.594300
      3 OAJ          2.1140     0.0000     1.0510 o          1 2XR      -0.511100
      4 CAN          2.2150    -0.0000    -1.2280 cc         1 2XR      -0.260400
      5 CAO          3.6800    -0.0070    -1.4070 ca         1 2XR      -0.050800
      6 CAP          4.7610    -0.0130    -0.5280 ca         1 2XR      -0.072000
      7 CAQ          6.0450    -0.0170    -1.0280 ca         1 2XR      -0.146000
      8 CAR          6.2630    -0.0150    -2.3980 ca         1 2XR      -0.108000
      9 CAS          5.2010    -0.0080    -3.2770 ca         1 2XR      -0.139000
     10 CAK          3.8980    -0.0040    -2.7920 ca         1 2XR      -0.059200
     11 NAL          2.6630     0.0040    -3.4090 na         1 2XR      -0.154400
     12 CAM          1.6740    -0.0010    -2.4950 cd         1 2XR      -0.047100
     13 H1          -0.3610    -0.8850    -0.5100 h1         1 2XR       0.077700
     14 H2          -0.3610     0.8840    -0.5110 h1         1 2XR       0.077700
     15 H4           4.5930    -0.0140     0.5420 ha         1 2XR       0.158000
     16 H5           6.8880    -0.0230    -0.3480 ha         1 2XR       0.135000
     17 H6           7.2760    -0.0190    -2.7810 ha         1 2XR       0.133000
     18 H7           5.3820    -0.0070    -4.3460 ha         1 2XR       0.126000
     19 H8           2.5230     0.0040    -4.4000 hn         1 2XR       0.299700
     20 H9           0.6150    -0.0040    -2.7220 h4         1 2XR       0.168000
     21 Cl1         -0.6000     0.0010     1.7000 cl         1 2XR      -0.162400
@<TRIPOS>BOND
     1     3     2 2
     2     6     7 ar
     3     6     5 ar
     4     2     1 1
     5     2     4 1
     6     7     8 ar
     7     5     4 1
     8     5    10 ar
     9     4    12 2
    10     8     9 ar
    11    10     9 ar
    12    10    11 1
    13    12    11 1
    14     1    13 1
    15     1    14 1
    16     6    15 1
    17     7    16 1
    18     8    17 1
    19     9    18 1
    20    11    19 1
    21    12    20 1
    22     1    21 1
@<TRIPOS>SUBSTRUCTURE
     1 2XR         1 TEMP              0 ****  ****    0 ROOT
