@<TRIPOS>MOLECULE
2XR
   21    22     1     0     0
SMALL
bcc


@<TRIPOS>ATOM
      1 CAH         0.1300   -0.1670    0.4310 c3        1 2XR      0.058200
      2 CAI         1.6130   -0.1770    0.2410 c2        1 2XR      0.216900
      3 OAJ         2.2730   -0.3520    1.4210 oh        1 2XR     -0.485100
      4 CAN         2.1930   -0.0580   -0.9760 ce        1 2XR     -0.240900
      5 CAO         3.5980   -0.0370   -1.3960 ca        1 2XR     -0.070800
      6 CAP         4.8160   -0.1290   -0.7490 ca        1 2XR     -0.108000
      7 CAQ         5.9990   -0.0610   -1.5000 ca        1 2XR     -0.137000
      8 CAR         5.9700    0.0970   -2.8810 ca        1 2XR     -0.115000
      9 CAS         4.7540    0.1940   -3.5720 ca        1 2XR     -0.132000
     10 CAK         3.5820    0.1270   -2.8330 ca        1 2XR      0.056600
     11 NAL         2.2200    0.1910   -3.2550 nh        1 2XR     -0.485400
     12 CAM         1.3650    0.0870   -2.2210 cg        1 2XR     -0.036300
     13 H1         -0.1780   -0.9890    1.1230 h1        1 2XR      0.106200
     14 H2         -0.3810   -0.2600   -0.5630 h1        1 2XR      0.106200
     15 H4          3.2280   -0.3030    1.2650 ho        1 2XR      0.435000
     16 H5          4.8920   -0.2560    0.3400 ha        1 2XR      0.123000
     17 H6          6.9660   -0.1350   -0.9800 ha        1 2XR      0.135000
     18 H7          6.9120    0.1480   -3.4470 ha        1 2XR      0.136000
     19 H8          4.7410    0.3190   -4.6630 ha        1 2XR      0.139000
     20 H9          1.9670    0.3020   -4.2030 hn        1 2XR      0.458800
     21 CL1        -0.4110    1.3370    1.1510 cl        1 2XR     -0.160400
@<TRIPOS>BOND
     1    1    2 1   
     2    1   13 1   
     3    1   14 1   
     4    1   21 1   
     5    2    3 1   
     6    2    4 2   
     7    3   15 1   
     8    4    5 1   
     9    4   12 1   
    10    5    6 ar  
    11    5   10 ar  
    12    6    7 ar  
    13    6   16 1   
    14    7    8 ar  
    15    7   17 1   
    16    8    9 ar  
    17    8   18 1   
    18    9   10 ar  
    19    9   19 1   
    20   10   11 1   
    21   11   12 3   
    22   11   20 1   
@<TRIPOS>SUBSTRUCTURE
     1 2XR         1 TEMP              0 ****  ****    0 ROOT
