@<TRIPOS>MOLECULE
2XS
   50    55     1     0     0
SMALL
bcc


@<TRIPOS>ATOM
      1 CAF          0.0000     0.0000     0.0000 ca         1 2XS       0.354600
      2 NAG          1.3360     0.0000     0.0000 nb         1 2XS      -0.589000
      3 CAH          2.0170     0.0000     1.1200 ca         1 2XS       0.411200
      4 CAI          1.3850    -0.0000     2.3620 ca         1 2XS      -0.224300
      5 CAJ          0.0220    -0.0010     2.4330 ca         1 2XS      -0.050000
      6 CAA         -0.7070     0.0050     1.2280 ca         1 2XS      -0.129300
      7 CAB         -2.1100     0.0120     1.2240 ca         1 2XS      -0.108000
      8 CAC         -2.7870     0.0120     0.0410 ca         1 2XS      -0.068000
      9 CAD         -2.1060     0.0060    -1.1730 ca         1 2XS      -0.120000
     10 CAE         -0.7290     0.0010    -1.2100 ca         1 2XS      -0.139700
     11 NAK         -0.0590    -0.0040    -2.4350 ns         1 2XS      -0.001100
     12 CAL         -0.6610     0.4880    -3.5350 c          1 2XS       0.579700
     13 OAM         -1.7470     1.0260    -3.4430 o          1 2XS      -0.640100
     14 CAN         -0.0050     0.3710    -4.8510 ca         1 2XS      -0.152600
     15 CAS         -0.6280     0.8800    -5.9930 ca         1 2XS      -0.049000
     16 CAO         -0.0120     0.7700    -7.2200 ca         1 2XS      -0.088500
     17 CAR          1.2470    -0.2420    -4.9570 ca         1 2XS      -0.049000
     18 CAQ          1.8570    -0.3490    -6.1870 ca         1 2XS      -0.088500
     19 CAP          1.2300     0.1530    -7.3230 ca         1 2XS      -0.084400
     20 NAT          1.8530     0.0430    -8.5690 n          1 2XS       0.006400
     21 CAW          3.0860     0.5080    -8.8060 c          1 2XS       0.620500
     22 OBE          3.7920     1.0640    -7.9920 o          1 2XS      -0.610500
     23 CAV          3.4610     0.2300   -10.2430 c3         1 2XS      -0.135200
     24 CBB          3.5030     1.5900   -11.0090 c3         1 2XS       0.009500
     25 CBC          1.9670     1.9100   -11.1090 c3         1 2XS      -0.052400
     26 CBA          3.8050     1.1940   -12.4600 c2         1 2XS      -0.151700
     27 CAZ          2.7440     0.5930   -12.9560 c2         1 2XS      -0.151700
     28 CAY          1.6410     0.5610   -11.8480 c3         1 2XS       0.009500
     29 CAU          2.2020    -0.4910   -10.8090 c3         1 2XS      -0.135200
     30 CAX          1.2670    -0.5390    -9.6220 c          1 2XS       0.620500
     31 OBD          0.1510    -1.0110    -9.6280 o          1 2XS      -0.610500
     32 H1           3.1000     0.0000     1.0790 h4         1 2XS      -0.022900
     33 H2           1.9750    -0.0000     3.2700 ha         1 2XS       0.112000
     34 H3          -0.4850    -0.0010     3.3900 ha         1 2XS       0.111000
     35 H4          -2.6550     0.0160     2.1600 ha         1 2XS       0.107000
     36 H5          -3.8700     0.0160     0.0460 ha         1 2XS       0.104000
     37 H6          -2.6660     0.0070    -2.1000 ha         1 2XS       0.159000
     38 H7           0.8640    -0.3860    -2.4980 hn         1 2XS       0.187500
     39 H8          -1.5960     1.3610    -5.9140 ha         1 2XS       0.120000
     40 H9          -0.4970     1.1620    -8.1060 ha         1 2XS       0.119000
     41 H10          1.7360    -0.6340    -4.0730 ha         1 2XS       0.120000
     42 H11          2.8260    -0.8270    -6.2710 ha         1 2XS       0.119000
     43 H12          4.3680    -0.3520   -10.3460 hc         1 2XS       0.075700
     44 H13          4.1250     2.3670   -10.5810 hc         1 2XS       0.063200
     45 H14          1.4950     1.9690   -10.1350 hc         1 2XS       0.032200
     46 H15          1.7670     2.7760   -11.7280 hc         1 2XS       0.032200
     47 H16          4.4010     1.8470   -13.0860 ha         1 2XS       0.119000
     48 H18          2.4670     0.7500   -13.9920 ha         1 2XS       0.119000
     49 H20          0.6190     0.4260   -12.1800 hc         1 2XS       0.063200
     50 H21          2.4160    -1.4610   -11.2390 hc         1 2XS       0.075700
@<TRIPOS>BOND
     1     1     2 ar  
     2     1     6 ar  
     3     1    10 ar  
     4     2     3 ar  
     5     3     4 ar  
     6     3    32 1   
     7     4     5 ar  
     8     4    33 1   
     9     5     6 ar  
    10     5    34 1   
    11     6     7 ar  
    12     7     8 ar  
    13     7    35 1   
    14     8     9 ar  
    15     8    36 1   
    16     9    10 ar  
    17     9    37 1   
    18    10    11 1   
    19    11    12 1   
    20    11    38 1   
    21    12    13 2   
    22    12    14 1   
    23    14    15 ar  
    24    14    17 ar  
    25    15    16 ar  
    26    15    39 1   
    27    16    19 ar  
    28    16    40 1   
    29    17    18 ar  
    30    17    41 1   
    31    18    19 ar  
    32    18    42 1   
    33    19    20 1   
    34    20    21 1   
    35    20    30 1   
    36    21    22 2   
    37    21    23 1   
    38    23    24 1   
    39    23    29 1   
    40    23    43 1   
    41    24    25 1   
    42    24    26 1   
    43    24    44 1   
    44    25    28 1   
    45    25    45 1   
    46    25    46 1   
    47    26    27 2   
    48    26    47 1   
    49    27    28 1   
    50    27    48 1   
    51    28    29 1   
    52    28    49 1   
    53    29    30 1   
    54    29    50 1   
    55    30    31 2   
@<TRIPOS>SUBSTRUCTURE
     1 2XS         1 TEMP              0 ****  ****    0 ROOT
