@<TRIPOS>MOLECULE
molecule
   63    64     1     0     0
SMALL
bcc


@<TRIPOS>ATOM
      1 CAE          0.0000     0.0000     0.0000 c3         1 2XV      -0.168100
      2 CAR          1.5070     0.0000     0.0000 c          1 2XV       0.661100
      3 OAU          2.1140     0.0000     1.0500 o          1 2XV      -0.583100
      4 NBA          2.1810    -0.0000    -1.1670 ns         1 2XV      -0.581900
      5 CAG          3.6470    -0.0000    -1.1660 c3         1 2XV       0.082700
      6 CAF          4.1590     0.6040    -2.4780 c3         1 2XV       0.139100
      7 OBF          3.7470     1.9690    -2.5690 oh         1 2XV      -0.580800
      8 CAS          4.1580    -1.4370    -1.0400 c3         1 2XV       0.333900
      9 OAV          3.7310    -1.9870     0.2070 os         1 2XV      -0.358600
     10 CAK          4.0600    -3.3670     0.3760 c3         1 2XV      -0.064400
     11 CAB          3.5660    -3.8410     1.7190 c2         1 2XV      -0.126200
     12 CAA          2.9400    -4.9880     1.8190 c2         1 2XV      -0.302000
     13 OAY          5.5870    -1.4400    -1.0990 os         1 2XV      -0.428600
     14 CAN          6.1220    -0.9310    -2.3220 c3         1 2XV       0.128100
     15 CAJ          7.6480    -1.0090    -2.2820 c3         1 2XV       0.153400
     16 OBE          8.0550    -2.3770    -2.2310 oh         1 2XV      -0.599800
     17 CAM          5.6880     0.5270    -2.4990 c3         1 2XV       0.104100
     18 O1           6.1740     1.0210    -3.7500 os         1 2XV      -0.398600
     19 C1           7.3650     1.8040    -3.6420 c3         1 2XV       0.337900
     20 C2           7.9150     2.0890    -5.0420 c3         1 2XV       0.096100
     21 O2           8.2690     0.8580    -5.6760 oh         1 2XV      -0.616800
     22 O5           7.0650     3.0380    -2.9890 os         1 2XV      -0.451600
     23 C5           8.1980     3.8910    -2.8050 c3         1 2XV       0.108100
     24 C6           7.7660     5.1630    -2.0740 c3         1 2XV      -0.229600
     25 O6           7.3270     4.8290    -0.7550 oh         1 2XV      -0.525800
     26 C4           8.7820     4.2610    -4.1720 c3         1 2XV       0.145100
     27 O4           7.8100     4.9880    -4.9260 oh         1 2XV      -0.589800
     28 C3           9.1570     2.9790    -4.9220 c3         1 2XV       0.152100
     29 O3           9.6350     3.3100    -6.2260 os         1 2XV      -0.404600
     30 CAQ         10.5890     2.3840    -6.7500 c3         1 2XV      -0.029500
     31 CAD         11.0120     2.8190    -8.0900 c1         1 2XV      -0.039100
     32 CAC         11.3680     3.1740    -9.1520 c1         1 2XV      -0.187500
     33 HAE         -0.3610     0.4040     0.9380 hc         1 2XV       0.059033
     34 HAG         -0.3610    -1.0140    -0.1190 hc         1 2XV       0.059033
     35 HAF         -0.3610     0.6100    -0.8190 hc         1 2XV       0.059033
     36 HBA          1.6830     0.0750    -2.0320 hn         1 2XV       0.306500
     37 HAI          4.0130     0.5870    -0.3330 h1         1 2XV       0.112700
     38 HAH          3.7590     0.0420    -3.3140 h1         1 2XV       0.041700
     39 HBF          3.1480     2.0690    -3.2910 ho         1 2XV       0.406000
     40 HAS          3.7640    -2.0310    -1.8560 h2         1 2XV       0.029700
     41 HAK          4.7070    -3.6860    -0.4320 h1         1 2XV       0.135200
     42 H64          4.5700    -3.5030     1.3220 h1         1 2XV       0.135200
     43 HAC          2.6920    -3.3830     2.1670 ha         1 2XV       0.211000
     44 HAB          2.5840    -5.3290     2.7830 ha         1 2XV       0.110500
     45 HAA          2.7780    -5.5950     0.9360 ha         1 2XV       0.110500
     46 HAN          5.7470    -1.5200    -3.1510 h1         1 2XV       0.051700
     47 H63          8.0290    -0.2890    -1.5680 h1         1 2XV       0.042700
     48 HAJ          8.0470    -0.7880    -3.2650 h1         1 2XV       0.042700
     49 HBE          8.7280    -2.5290    -2.8740 ho         1 2XV       0.404000
     50 HAM          6.0900     1.1230    -1.6880 h1         1 2XV       0.083700
     51 H1           8.1070     1.2640    -3.0670 h2         1 2XV       0.032700
     52 H21          7.1610     2.6000    -5.6280 h1         1 2XV       0.087700
     53 H22          7.7660     0.7550    -6.4670 ho         1 2XV       0.414000
     54 H5           8.9480     3.3710    -2.2230 h1         1 2XV       0.052700
     55 H62          7.5400     4.9270    -1.0410 h1         1 2XV       0.190200
     56 H61          6.8850     5.5730    -2.5520 h1         1 2XV       0.190200
     57 H66          6.5600     5.3340    -0.5420 ho         1 2XV       0.468000
     58 H41          9.6680     4.8680    -4.0320 h1         1 2XV       0.070700
     59 H42          8.0460     5.9010    -4.9450 ho         1 2XV       0.411000
     60 H3           9.9270     2.4520    -4.3720 h1         1 2XV       0.063700
     61 HAQ         10.2990     1.3750    -6.4810 h1         1 2XV       0.134700
     62 H65         10.6260     2.4740    -7.8290 h1         1 2XV       0.134700
     63 HAD         11.6780     3.4970   -10.1380 ha         1 2XV       0.174500
@<TRIPOS>BOND
     1     1     2 1   
     2     7     6 1   
     3     4     2 1   
     4     4     5 1   
     5     2     3 2   
     6    27    26 1   
     7     6     5 1   
     8     6    17 1   
     9    29    30 1   
    10    29    28 1   
    11    18    17 1   
    12    18    19 1   
    13    20    21 1   
    14    20    28 1   
    15    20    19 1   
    16     5     8 1   
    17    12    11 2   
    18    11    10 1   
    19    30    31 1   
    20    26    28 1   
    21    26    23 1   
    22    22    19 1   
    23    22    23 1   
    24    17    14 1   
    25     8     9 1   
    26     8    13 1   
    27     9    10 1   
    28    24    23 1   
    29    24    25 1   
    30    14    13 1   
    31    14    15 1   
    32    31    32 3   
    33    15    16 1   
    34     1    33 1   
    35     1    34 1   
    36     1    35 1   
    37     4    36 1   
    38     5    37 1   
    39     6    38 1   
    40     7    39 1   
    41     8    40 1   
    42    10    41 1   
    43    10    42 1   
    44    11    43 1   
    45    12    44 1   
    46    12    45 1   
    47    14    46 1   
    48    15    47 1   
    49    15    48 1   
    50    16    49 1   
    51    17    50 1   
    52    19    51 1   
    53    20    52 1   
    54    21    53 1   
    55    23    54 1   
    56    24    55 1   
    57    24    56 1   
    58    25    57 1   
    59    26    58 1   
    60    27    59 1   
    61    28    60 1   
    62    30    61 1   
    63    30    62 1   
    64    32    63 1   
@<TRIPOS>SUBSTRUCTURE
     1 2XV         1 TEMP              0 ****  ****    0 ROOT
