@<TRIPOS>MOLECULE
2XX
   20    20     1     0     0
SMALL
bcc


@<TRIPOS>ATOM
      1 OAC        -0.0110   -0.2790   -0.0810 o         1 2XX     -0.517100
      2 CAH         1.2110   -0.1690   -0.0210 c         1 2XX      0.539300
      3 CAI         2.0670   -0.1690    1.1820 ce        1 2XX     -0.138100
      4 OAD         1.6290   -0.2880    2.4730 oh        1 2XX     -0.469100
      5 CAG         3.3730   -0.0240    0.8100 c2        1 2XX      0.102900
      6 CAB         4.6150    0.0380    1.5870 c3        1 2XX     -0.044900
      7 OAF         3.5140    0.0780   -0.5760 os        1 2XX     -0.319900
      8 CAJ         2.1890   -0.0120   -1.1850 c3        1 2XX      0.028100
      9 CAE         1.9250    1.2340   -2.0090 c3        1 2XX     -0.077400
     10 CAA         2.7240    1.2300   -3.2860 c3        1 2XX     -0.095100
     11 H1          0.6650   -0.3920    2.4200 ho        1 2XX      0.433000
     12 H2          4.3800   -0.0810    2.6750 hc        1 2XX      0.068033
     13 H3          5.1240    1.0210    1.4220 hc        1 2XX      0.068033
     14 H4          5.3120   -0.7770    1.2660 hc        1 2XX      0.068033
     15 H5          2.2060   -0.9380   -1.8200 h1        1 2XX      0.101700
     16 H6          2.1850    2.1410   -1.4030 hc        1 2XX      0.063200
     17 H7          0.8270    1.2710   -2.2350 hc        1 2XX      0.063200
     18 H8          2.4270    0.3720   -3.9370 hc        1 2XX      0.042033
     19 H9          2.5500    2.1780   -3.8500 hc        1 2XX      0.042033
     20 H10         3.8150    1.1410   -3.0620 hc        1 2XX      0.042033
@<TRIPOS>BOND
     1    1    2 2   
     2    2    3 1   
     3    2    8 1   
     4    3    4 1   
     5    3    5 2   
     6    4   11 1   
     7    5    6 1   
     8    5    7 1   
     9    6   12 1   
    10    6   13 1   
    11    6   14 1   
    12    7    8 1   
    13    8    9 1   
    14    8   15 1   
    15    9   10 1   
    16    9   16 1   
    17    9   17 1   
    18   10   18 1   
    19   10   19 1   
    20   10   20 1   
@<TRIPOS>SUBSTRUCTURE
     1 2XX         1 TEMP              0 ****  ****    0 ROOT
