@<TRIPOS>MOLECULE
molecule
   20    20     1     0     0
SMALL
bcc


@<TRIPOS>ATOM
      1 OAC          0.0000     0.0000     0.0000 o          1 2XX      -0.512100
      2 CAH          1.2150     0.0000     0.0000 c          1 2XX       0.535300
      3 CAI          2.0760     0.0000     1.1210 ce         1 2XX      -0.174100
      4 OAD          1.6740     0.0010     2.4220 oh         1 2XX      -0.475100
      5 CAG          3.3540    -0.0000     0.7020 c2         1 2XX       0.125900
      6 CAB          4.5390    -0.0010     1.6340 c3         1 2XX      -0.030900
      7 OAF          3.4590    -0.0010    -0.6360 os         1 2XX      -0.282900
      8 CAJ          2.1400    -0.0070    -1.1990 c3         1 2XX       0.016100
      9 CAE          1.9200     1.2440    -2.0520 c3         1 2XX      -0.076400
     10 CAA          2.7730     1.1550    -3.3190 c3         1 2XX      -0.092100
     11 H1           1.0660    -0.7060     2.5630 ho         1 2XX       0.419000
     12 H2           5.4540     0.0180     1.0540 hc         1 2XX       0.065367
     13 H3           4.5170    -0.8950     2.2450 hc         1 2XX       0.065367
     14 H4           4.4970     0.8730     2.2720 hc         1 2XX       0.065367
     15 H5           1.9870    -0.9040    -1.7870 h1         1 2XX       0.101700
     16 H6           0.8750     1.3150    -2.3250 hc         1 2XX       0.064200
     17 H7           2.2060     2.1220    -1.4850 hc         1 2XX       0.064200
     18 H8           2.4990     1.9550    -3.9960 hc         1 2XX       0.039700
     19 H9           2.6040     0.2000    -3.8010 hc         1 2XX       0.039700
     20 H10          3.8200     1.2470    -3.0570 hc         1 2XX       0.039700
@<TRIPOS>BOND
     1    10     9 1   
     2     9     8 1   
     3     1     2 2   
     4     2     8 1   
     5     2     3 1   
     6     8     7 1   
     7     4     3 1   
     8     3     5 2   
     9     7     5 1   
    10     5     6 1   
    11     4    11 1   
    12     6    12 1   
    13     6    13 1   
    14     6    14 1   
    15     8    15 1   
    16     9    16 1   
    17     9    17 1   
    18    10    18 1   
    19    10    19 1   
    20    10    20 1   
@<TRIPOS>SUBSTRUCTURE
     1 2XX         1 TEMP              0 ****  ****    0 ROOT
