@<TRIPOS>MOLECULE
2XY
   32    33     1     0     0
SMALL
bcc


@<TRIPOS>ATOM
      1 C4           0.0000     0.0000     0.0000 c3         1 2XY       0.109800
      2 C1           0.0690    -0.9820     2.2180 c3         1 2XY       0.109800
      3 C2           1.5910    -1.0530     2.1000 c3         1 2XY       0.212900
      4 O2          -5.9230    -1.0300     1.2130 o          1 2XY      -0.456500
      5 C3           1.5230     0.0000     0.0000 c3         1 2XY       0.212900
      6 O3          -4.1310    -0.1170     1.0550 o          1 2XY      -0.456500
      7 C5          -2.5190    -2.3390     0.7470 ca         1 2XY       0.139600
      8 O1           2.0680     0.0000     1.2890 os         1 2XY      -0.394600
      9 N1          -0.4740    -1.0260     0.8930 n3         1 2XY      -0.360400
     10 N2          -1.8850    -1.0600     0.9240 nu         1 2XY      -0.349400
     11 C6          -1.7890    -3.4330     0.5310 ca         1 2XY      -0.210000
     12 C7          -2.5070    -4.7640     0.4600 ca         1 2XY       0.072000
     13 C8          -3.8250    -4.7890     0.5960 ca         1 2XY      -0.296300
     14 C9          -4.5960    -6.0950     0.5120 c3         1 2XY       0.634200
     15 F2          -5.8510    -5.8510     0.0400 f          1 2XY      -0.198967
     16 F3          -4.6320    -6.6950     1.7290 f          1 2XY      -0.198967
     17 F1          -4.0020    -6.9070    -0.3610 f          1 2XY      -0.198967
     18 C10         -4.6500    -3.5250     0.8150 ca         1 2XY       0.097000
     19 C11         -4.0240    -2.3780     0.8980 ca         1 2XY      -0.489200
     20 N3          -4.7360    -1.1190     1.1530 no         1 2XY       1.102200
     21 H4          -0.3610    -0.1990    -1.0020 h1         1 2XY       0.023450
     22 H4A         -0.3610     0.9650     0.3350 h1         1 2XY       0.023450
     23 H1          -0.2940    -1.8280     2.7890 h1         1 2XY       0.023450
     24 H1A         -0.2180    -0.0560     2.7000 h1         1 2XY       0.023450
     25 H2           2.0290    -0.9700     3.0870 h1         1 2XY       0.012450
     26 H2A          1.8710    -2.0010     1.6570 h1         1 2XY       0.012450
     27 H3           1.8700    -0.8820    -0.5240 h1         1 2XY       0.012450
     28 H3A          1.8700     0.8820    -0.5240 h1         1 2XY       0.012450
     29 HN2         -2.4090    -0.2190     0.7880 hn         1 2XY       0.365800
     30 H6          -0.7120    -3.3740     0.4240 ha         1 2XY       0.151000
     31 H7          -1.9540    -5.6790     0.2870 ha         1 2XY       0.118000
     32 H10         -5.7270    -3.5770     0.9210 ha         1 2XY       0.140000
@<TRIPOS>BOND
     1     1     5 1   
     2     1     9 1   
     3     1    21 1   
     4     1    22 1   
     5     2     3 1   
     6     2     9 1   
     7     2    23 1   
     8     2    24 1   
     9     3     8 1   
    10     3    25 1   
    11     3    26 1   
    12     4    20 1   
    13     5     8 1   
    14     5    27 1   
    15     5    28 1   
    16     6    20 1   
    17     7    10 1   
    18     7    11 ar  
    19     7    19 ar  
    20     9    10 1   
    21    10    29 1   
    22    11    12 ar  
    23    11    30 1   
    24    12    13 ar  
    25    12    31 1   
    26    13    14 1   
    27    13    18 ar  
    28    14    15 1   
    29    14    16 1   
    30    14    17 1   
    31    18    19 ar  
    32    18    32 1   
    33    19    20 1   
@<TRIPOS>SUBSTRUCTURE
     1 2XY         1 TEMP              0 ****  ****    0 ROOT
