@<TRIPOS>MOLECULE
molecule
   55    57     1     0     0
SMALL
bcc


@<TRIPOS>ATOM
      1 OAE          0.0000     0.0000     0.0000 oh         1 2XZ      -0.597800
      2 CAK          1.4280     0.0000     0.0000 c3         1 2XZ       0.143400
      3 CAL          1.9390     0.0000     1.4420 c3         1 2XZ       0.138400
      4 OAS          1.5610    -1.2200     2.0810 os         1 2XZ      -0.302900
      5 CBA          1.9400    -1.3830     3.3770 ca         1 2XZ       0.114100
      6 CAI          2.6570    -0.3880     4.0170 ca         1 2XZ      -0.149000
      7 CAZ          1.6000    -2.5470     4.0620 ca         1 2XZ       0.130100
      8 OAR          0.8890    -3.5200     3.4340 os         1 2XZ      -0.306900
      9 CAB          0.5750    -4.6880     4.1950 c3         1 2XZ       0.126700
     10 CAG          1.9840    -2.7130     5.3840 ca         1 2XZ      -0.194000
     11 CAF          2.7040    -1.7280     6.0270 ca         1 2XZ      -0.112000
     12 CAX          3.0440    -0.5570     5.3470 ca         1 2XZ      -0.128500
     13 CBD          3.8160     0.4990     6.0340 cc         1 2XZ       0.541900
     14 NAQ          4.1880     1.6300     5.5030 nd         1 2XZ      -0.674000
     15 SAU          4.3750     0.4370     7.7030 ss         1 2XZ      -0.236300
     16 CBC          5.1060     2.0290     7.5140 cc         1 2XZ      -0.113700
     17 CAM          5.8610     2.7870     8.5760 c3         1 2XZ      -0.004100
     18 CAJ          4.8860     3.6600     9.3680 c3         1 2XZ      -0.083400
     19 CAA          5.6530     4.4290    10.4470 c3         1 2XZ      -0.093100
     20 CBB          4.8710     2.4510     6.2670 cd         1 2XZ       0.370600
     21 CAN          5.3630     3.7860     5.7680 c3         1 2XZ      -0.028600
     22 SAT          7.0120     3.5900     5.0480 ss         1 2XZ      -0.239400
     23 C2           7.3330     5.2520     4.5610 ca         1 2XZ       0.836300
     24 N3           8.4830     5.5420     3.9720 nb         1 2XZ      -0.813000
     25 N1           6.4150     6.1810     4.7890 nb         1 2XZ      -0.813000
     26 C6           6.6220     7.4460     4.4350 ca         1 2XZ       0.749700
     27 NAC          5.6550     8.4110     4.6770 nv         1 2XZ      -1.043500
     28 C5           7.8210     7.7900     3.8190 ca         1 2XZ      -0.469600
     29 C4           8.7600     6.7870     3.5910 ca         1 2XZ       0.749700
     30 NAD          9.9680     7.0830     2.9800 nv         1 2XZ      -1.043500
     31 H1          -0.3140     0.0990    -0.8830 ho         1 2XZ       0.401000
     32 H2           1.7900     0.8850    -0.5110 h1         1 2XZ       0.033200
     33 H3           1.7900    -0.8840    -0.5110 h1         1 2XZ       0.033200
     34 H4           3.0180     0.0890     1.4440 h1         1 2XZ       0.047200
     35 H5           1.5070     0.8370     1.9780 h1         1 2XZ       0.047200
     36 H6           2.9190     0.5190     3.4860 ha         1 2XZ       0.164000
     37 H7          -0.0170    -4.4070     5.0580 h1         1 2XZ       0.041033
     38 H8           0.0100    -5.3790     3.5800 h1         1 2XZ       0.041033
     39 H9           1.4910    -5.1630     4.5240 h1         1 2XZ       0.041033
     40 H10          1.7190    -3.6210     5.9130 ha         1 2XZ       0.143000
     41 H11          3.0030    -1.8620     7.0590 ha         1 2XZ       0.135000
     42 H12          6.6100     3.4150     8.1080 hc         1 2XZ       0.061700
     43 H13          6.3440     2.0860     9.2460 hc         1 2XZ       0.061700
     44 H14          4.1370     3.0320     9.8350 hc         1 2XZ       0.047200
     45 H15          4.4030     4.3620     8.6990 hc         1 2XZ       0.047200
     46 H16          6.1570     3.7280    11.1010 hc         1 2XZ       0.035367
     47 H17          4.9590     5.0280    11.0250 hc         1 2XZ       0.035367
     48 H18          6.3850     5.0760     9.9780 hc         1 2XZ       0.035367
     49 H19          4.6830     4.1630     5.0140 h1         1 2XZ       0.091200
     50 H20          5.4100     4.4850     6.5940 h1         1 2XZ       0.091200
     51 H21          5.6550     8.9130     5.5430 hn         1 2XZ       0.441550
     52 H22          4.9480     8.5940     3.9920 hn         1 2XZ       0.441550
     53 H23          8.0180     8.8120     3.5190 ha         1 2XZ       0.145000
     54 H24         10.6390     6.3580     2.8210 hn         1 2XZ       0.441550
     55 H25         10.1690     8.0220     2.6970 hn         1 2XZ       0.441550
@<TRIPOS>BOND
     1    15    16 1
     2    15    13 1
     3    17    18 1
     4    17    16 1
     5    18    19 1
     6    16    20 2
     7    11    10 ar
     8    11    12 ar
     9    30    29 1
    10    10     7 ar
    11    13    12 1
    12    13    14 2
    13    28    29 ar
    14    28    26 ar
    15    29    24 ar
    16     9     8 1
    17    27    26 1
    18    12     6 ar
    19    26    25 ar
    20    24    23 ar
    21    25    23 ar
    22    20    14 1
    23    20    21 1
    24    23    22 1
    25     7     8 1
    26     7     5 ar
    27    22    21 1
    28     6     5 ar
    29     5     4 1
    30     4     3 1
    31     3     2 1
    32     2     1 1
    33     1    31 1
    34     2    32 1
    35     2    33 1
    36     3    34 1
    37     3    35 1
    38     6    36 1
    39     9    37 1
    40     9    38 1
    41     9    39 1
    42    10    40 1
    43    11    41 1
    44    17    42 1
    45    17    43 1
    46    18    44 1
    47    18    45 1
    48    19    46 1
    49    19    47 1
    50    19    48 1
    51    21    49 1
    52    21    50 1
    53    27    51 1
    54    27    52 1
    55    28    53 1
    56    30    54 1
    57    30    55 1
@<TRIPOS>SUBSTRUCTURE
     1 2XZ         1 TEMP              0 ****  ****    0 ROOT
