@<TRIPOS>MOLECULE
2Y0
   58    60     1     0     0
SMALL
bcc


@<TRIPOS>ATOM
      1 CAB          0.0000     0.0000     0.0000 c3         1 2Y0       0.010700
      2 SBF          1.8140     0.0000     0.0000 s6         1 2Y0       0.954900
      3 OAE          2.3130     0.0000     1.3300 o          1 2Y0      -0.584800
      4 OAF          2.3120    -0.9120    -0.9700 o          1 2Y0      -0.584800
      5 NAT          2.2270     1.4910    -0.5910 n7         1 2Y0      -0.599100
      6 CAM          1.8910     2.6980     0.1670 c3         1 2Y0       0.226800
      7 CAN          2.6870     3.8840    -0.3810 c3         1 2Y0       0.190400
      8 OAU          2.2770     4.1530    -1.7230 os         1 2Y0      -0.309900
      9 CAZ          2.8910     5.1830    -2.3610 ca         1 2Y0       0.146100
     10 CAK          2.5400     5.5000    -3.6640 ca         1 2Y0      -0.104000
     11 CAH          3.8660     5.9240    -1.7050 ca         1 2Y0      -0.202000
     12 CAG          4.4940     6.9730    -2.3500 ca         1 2Y0      -0.056000
     13 CAI          4.1560     7.2930    -3.6490 ca         1 2Y0      -0.130000
     14 CBA          3.1730     6.5580    -4.3140 ca         1 2Y0      -0.085500
     15 CBE          2.8080     6.8970    -5.7060 cc         1 2Y0       0.518900
     16 NAS          1.9100     6.2850    -6.4240 nd         1 2Y0      -0.534000
     17 SAW          3.5140     8.2000    -6.6600 ss         1 2Y0      -0.324300
     18 CBD          2.4740     7.7660    -8.0150 cc         1 2Y0      -0.070700
     19 CAO          2.4400     8.4490    -9.3570 c3         1 2Y0       0.062900
     20 CAL          1.4140     9.5840    -9.3250 c3         1 2Y0      -0.031400
     21 CAA          1.3800    10.2790   -10.6880 c3         1 2Y0       0.006900
     22 CBC          1.7190     6.7260    -7.6450 cd         1 2Y0       0.328600
     23 CAP          0.7120     6.0980    -8.5740 c3         1 2Y0       0.057400
     24 SAV          1.5050     4.7740    -9.5180 ss         1 2Y0      -0.381400
     25 C2           0.1400     4.2320   -10.4920 ca         1 2Y0       0.818300
     26 N3           0.3130     3.2360   -11.3490 nb         1 2Y0      -0.725000
     27 N1          -1.0340     4.8270   -10.3440 nb         1 2Y0      -0.725000
     28 C6          -2.0880     4.4450   -11.0630 ca         1 2Y0       0.576200
     29 NAC         -3.3130     5.0740   -10.9020 nv         1 2Y0      -0.539500
     30 C5          -1.9430     3.4060   -11.9770 ca         1 2Y0      -0.493600
     31 C4          -0.6950     2.8010   -12.1010 ca         1 2Y0       0.576200
     32 NAD         -0.5050     1.7630   -12.9990 nv         1 2Y0      -0.539500
     33 H1          -0.3610    -1.0110     0.1480 h1         1 2Y0       0.062367
     34 H2          -0.3610     0.6330     0.8010 h1         1 2Y0       0.062367
     35 H3          -0.3610     0.3770    -0.9490 h1         1 2Y0       0.062367
     36 H4           2.7160     1.5660    -1.4610 hn         1 2Y0       0.364800
     37 H5           0.8310     2.9000     0.0730 h1         1 2Y0       0.020200
     38 H6           2.1390     2.5490     1.2110 h1         1 2Y0       0.020200
     39 H7           2.5050     4.7570     0.2340 h1         1 2Y0       0.010700
     40 H8           3.7440     3.6470    -0.3680 h1         1 2Y0       0.010700
     41 H9           1.7770     4.9260    -4.1760 ha         1 2Y0       0.137000
     42 H10          4.1350     5.6780    -0.6850 ha         1 2Y0       0.119000
     43 H11          5.2550     7.5460    -1.8330 ha         1 2Y0       0.104000
     44 H12          4.6510     8.1160    -4.1500 ha         1 2Y0       0.117000
     45 H13          3.4200     8.8530    -9.5810 hc         1 2Y0       0.034200
     46 H14          2.1620     7.7320   -10.1200 hc         1 2Y0       0.034200
     47 H15          0.4350     9.1800    -9.1010 hc         1 2Y0       0.018200
     48 H16          1.6920    10.3010    -8.5620 hc         1 2Y0       0.018200
     49 H17          1.0870     9.5660   -11.4490 hc         1 2Y0       0.002367
     50 H18          2.3630    10.6700   -10.9190 hc         1 2Y0       0.002367
     51 H19          0.6650    11.0920   -10.6610 hc         1 2Y0       0.002367
     52 H20         -0.1070     5.6880    -7.9950 h1         1 2Y0       0.060200
     53 H21          0.3310     6.8490    -9.2560 h1         1 2Y0       0.060200
     54 H22         -3.3620     6.0730   -10.8710 hn         1 2Y0       0.273300
     55 H23         -4.1460     4.5280   -10.8080 hn         1 2Y0       0.273300
     56 H24         -2.7820     3.0730   -12.5760 ha         1 2Y0       0.129000
     57 H25          0.3940     1.3310   -13.0820 hn         1 2Y0       0.273300
     58 H26         -1.2670     1.4450   -13.5650 hn         1 2Y0       0.273300
@<TRIPOS>BOND
     1     1     2 1   
     2     1    33 1   
     3     1    34 1   
     4     1    35 1   
     5     2     3 2   
     6     2     4 2   
     7     2     5 1   
     8     5     6 1   
     9     5    36 1   
    10     6     7 1   
    11     6    37 1   
    12     6    38 1   
    13     7     8 1   
    14     7    39 1   
    15     7    40 1   
    16     8     9 1   
    17     9    10 ar  
    18     9    11 ar  
    19    10    14 ar  
    20    10    41 1   
    21    11    12 ar  
    22    11    42 1   
    23    12    13 ar  
    24    12    43 1   
    25    13    14 ar  
    26    13    44 1   
    27    14    15 1   
    28    15    16 2   
    29    15    17 1   
    30    16    22 1   
    31    17    18 1   
    32    18    19 1   
    33    18    22 2   
    34    19    20 1   
    35    19    45 1   
    36    19    46 1   
    37    20    21 1   
    38    20    47 1   
    39    20    48 1   
    40    21    49 1   
    41    21    50 1   
    42    21    51 1   
    43    22    23 1   
    44    23    24 1   
    45    23    52 1   
    46    23    53 1   
    47    24    25 1   
    48    25    26 ar  
    49    25    27 ar  
    50    26    31 ar  
    51    27    28 ar  
    52    28    29 1   
    53    28    30 ar  
    54    29    54 1   
    55    29    55 1   
    56    30    31 ar  
    57    30    56 1   
    58    31    32 1   
    59    32    57 1   
    60    32    58 1   
@<TRIPOS>SUBSTRUCTURE
     1 2Y0         1 TEMP              0 ****  ****    0 ROOT
