@<TRIPOS>MOLECULE
molecule
   58    60     1     0     0
SMALL
bcc


@<TRIPOS>ATOM
      1 CAB          0.0000     0.0000     0.0000 c3         1 2Y0      -0.248300
      2 SBF          1.8140     0.0000     0.0000 s6         1 2Y0       1.325900
      3 OAE          2.3130     0.0000     1.3300 o          1 2Y0      -0.628300
      4 OAF          2.3120    -0.9120    -0.9700 o          1 2Y0      -0.628300
      5 NAT          2.2270     1.4910    -0.5910 n7         1 2Y0      -0.913100
      6 CAM          1.8910     2.6980     0.1670 c3         1 2Y0       0.237800
      7 CAN          2.6870     3.8840    -0.3810 c3         1 2Y0       0.130400
      8 OAU          2.2770     4.1530    -1.7230 os         1 2Y0      -0.330900
      9 CAZ          2.8910     5.1830    -2.3610 ca         1 2Y0       0.135100
     10 CAK          2.5400     5.5000    -3.6640 ca         1 2Y0      -0.115000
     11 CAH          3.8660     5.9240    -1.7050 ca         1 2Y0      -0.212000
     12 CAG          4.4940     6.9730    -2.3500 ca         1 2Y0      -0.090000
     13 CAI          4.1560     7.2930    -3.6490 ca         1 2Y0      -0.151000
     14 CBA          3.1730     6.5580    -4.3140 ca         1 2Y0      -0.087500
     15 CBE          2.8080     6.8970    -5.7060 cc         1 2Y0       0.528900
     16 NAS          1.9100     6.2850    -6.4240 nd         1 2Y0      -0.661000
     17 SAW          3.5140     8.2000    -6.6600 ss         1 2Y0      -0.230300
     18 CBD          2.4740     7.7660    -8.0150 cc         1 2Y0      -0.108700
     19 CAO          2.4400     8.4490    -9.3570 c3         1 2Y0      -0.005100
     20 CAL          1.4140     9.5840    -9.3250 c3         1 2Y0      -0.082400
     21 CAA          1.3800    10.2790   -10.6880 c3         1 2Y0      -0.093100
     22 CBC          1.7190     6.7260    -7.6450 cd         1 2Y0       0.369600
     23 CAP          0.7120     6.0980    -8.5740 c3         1 2Y0      -0.030600
     24 SAV          1.5050     4.7740    -9.5180 ss         1 2Y0      -0.236400
     25 C2           0.1400     4.2320   -10.4920 ca         1 2Y0       0.851300
     26 N3           0.3130     3.2360   -11.3490 nb         1 2Y0      -0.832000
     27 N1          -1.0340     4.8270   -10.3440 nb         1 2Y0      -0.832000
     28 C6          -2.0880     4.4450   -11.0630 ca         1 2Y0       0.759700
     29 NAC         -3.3130     5.0740   -10.9020 nv         1 2Y0      -1.020500
     30 C5          -1.9430     3.4060   -11.9770 ca         1 2Y0      -0.504600
     31 C4          -0.6950     2.8010   -12.1010 ca         1 2Y0       0.759700
     32 NAD         -0.5050     1.7630   -12.9990 nv         1 2Y0      -1.020500
     33 H1          -0.3610    -1.0110     0.1480 h1         1 2Y0       0.097700
     34 H2          -0.3610     0.6330     0.8010 h1         1 2Y0       0.097700
     35 H3          -0.3610     0.3770    -0.9490 h1         1 2Y0       0.097700
     36 H4           2.7160     1.5660    -1.4610 hn         1 2Y0       0.468800
     37 H5           0.8310     2.9000     0.0730 h1         1 2Y0       0.057200
     38 H6           2.1390     2.5490     1.2110 h1         1 2Y0       0.057200
     39 H7           2.5050     4.7570     0.2340 h1         1 2Y0       0.047700
     40 H8           3.7440     3.6470    -0.3680 h1         1 2Y0       0.047700
     41 H9           1.7770     4.9260    -4.1760 ha         1 2Y0       0.170000
     42 H10          4.1350     5.6780    -0.6850 ha         1 2Y0       0.136000
     43 H11          5.2550     7.5460    -1.8330 ha         1 2Y0       0.136000
     44 H12          4.6510     8.1160    -4.1500 ha         1 2Y0       0.136000
     45 H13          3.4200     8.8530    -9.5810 hc         1 2Y0       0.062700
     46 H14          2.1620     7.7320   -10.1200 hc         1 2Y0       0.062700
     47 H15          0.4350     9.1800    -9.1010 hc         1 2Y0       0.046700
     48 H16          1.6920    10.3010    -8.5620 hc         1 2Y0       0.046700
     49 H17          1.0870     9.5660   -11.4490 hc         1 2Y0       0.036033
     50 H18          2.3630    10.6700   -10.9190 hc         1 2Y0       0.036033
     51 H19          0.6650    11.0920   -10.6610 hc         1 2Y0       0.036033
     52 H20         -0.1070     5.6880    -7.9950 h1         1 2Y0       0.091700
     53 H21          0.3310     6.8490    -9.2560 h1         1 2Y0       0.091700
     54 H22         -3.3620     6.0730   -10.8710 hn         1 2Y0       0.441800
     55 H23         -4.1460     4.5280   -10.8080 hn         1 2Y0       0.441800
     56 H24         -2.7820     3.0730   -12.5760 ha         1 2Y0       0.140000
     57 H25          0.3940     1.3310   -13.0820 hn         1 2Y0       0.441800
     58 H26         -1.2670     1.4450   -13.5650 hn         1 2Y0       0.441800
@<TRIPOS>BOND
     1    21    20 1   
     2    20    19 1   
     3    19    18 1   
     4    17    18 1   
     5    17    15 1   
     6    18    22 2   
     7    13    12 ar  
     8    13    14 ar  
     9    29    28 1   
    10    12    11 ar  
    11    28    27 ar  
    12    28    30 ar  
    13    27    25 ar  
    14    30    31 ar  
    15    15    14 1   
    16    15    16 2   
    17    25    24 1   
    18    25    26 ar  
    19    31    26 ar  
    20    31    32 1   
    21    24    23 1   
    22    14    10 ar  
    23    22    16 1   
    24    22    23 1   
    25    11     9 ar  
    26    10     9 ar  
    27     9     8 1   
    28     8     7 1   
    29     7     6 1   
    30     6     5 1   
    31     5     2 1   
    32     1     2 1   
    33     2     4 2   
    34     2     3 2   
    35     1    33 1   
    36     1    34 1   
    37     1    35 1   
    38     5    36 1   
    39     6    37 1   
    40     6    38 1   
    41     7    39 1   
    42     7    40 1   
    43    10    41 1   
    44    11    42 1   
    45    12    43 1   
    46    13    44 1   
    47    19    45 1   
    48    19    46 1   
    49    20    47 1   
    50    20    48 1   
    51    21    49 1   
    52    21    50 1   
    53    21    51 1   
    54    23    52 1   
    55    23    53 1   
    56    29    54 1   
    57    29    55 1   
    58    30    56 1   
    59    32    57 1   
    60    32    58 1   
@<TRIPOS>SUBSTRUCTURE
     1 2Y0         1 TEMP              0 ****  ****    0 ROOT
