@<TRIPOS>MOLECULE
2Y1
   57    59     1     0     0
SMALL
bcc


@<TRIPOS>ATOM
      1 FAF          0.0000     0.0000     0.0000 f          1 2Y1      -0.226300
      2 CAL          1.3990     0.0000     0.0000 c3         1 2Y1       0.212900
      3 CAM          1.9090     0.0000     1.4430 c3         1 2Y1       0.164400
      4 OAS          1.5300    -1.2200     2.0820 os         1 2Y1      -0.282900
      5 CAZ          1.9080    -1.3820     3.3780 ca         1 2Y1       0.115100
      6 CAJ          2.6260    -0.3880     4.0180 ca         1 2Y1      -0.167000
      7 CAY          1.5670    -2.5460     4.0640 ca         1 2Y1       0.136100
      8 OAR          0.8570    -3.5190     3.4360 os         1 2Y1      -0.290900
      9 CAB          0.5410    -4.6870     4.1980 c3         1 2Y1       0.241700
     10 CAH          1.9500    -2.7130     5.3860 ca         1 2Y1      -0.186000
     11 CAG          2.6710    -1.7270     6.0280 ca         1 2Y1      -0.051000
     12 CAX          3.0120    -0.5570     5.3490 ca         1 2Y1      -0.132500
     13 CBC          3.7840     0.5010     6.0350 cc         1 2Y1       0.534900
     14 NAQ          4.2010     0.4520     7.2690 nd         1 2Y1      -0.538000
     15 SAU          4.2960     2.0240     5.3150 ss         1 2Y1      -0.340300
     16 CBB          5.0610     2.4810     6.8360 cc         1 2Y1      -0.085700
     17 CAN          5.8010     3.7670     7.1010 c3         1 2Y1       0.070900
     18 CAK          7.2800     3.5840     6.7590 c3         1 2Y1      -0.035400
     19 CAA          8.0310     4.8900     7.0290 c3         1 2Y1       0.006900
     20 CBD          4.8760     1.4880     7.7120 cd         1 2Y1       0.342600
     21 CBE          5.4070     1.5550     9.1200 c3         1 2Y1       0.040100
     22 CAC          4.2540     1.8310    10.0870 c3         1 2Y1      -0.001100
     23 SAT          6.1870    -0.0220     9.5460 ss         1 2Y1      -0.366400
     24 C2           6.8330     0.3760    11.1370 ca         1 2Y1       0.831300
     25 N3           7.5010    -0.5480    11.8120 nb         1 2Y1      -0.744000
     26 N1           6.6430     1.5930    11.6240 nb         1 2Y1      -0.744000
     27 C6           7.1170     1.9300    12.8210 ca         1 2Y1       0.582200
     28 NAD          6.9140     3.2050    13.3240 nv         1 2Y1      -0.514500
     29 C5           7.8200     0.9840    13.5620 ca         1 2Y1      -0.527600
     30 C4           8.0030    -0.2830    13.0150 ca         1 2Y1       0.582200
     31 NAE          8.6970    -1.2570    13.7170 nv         1 2Y1      -0.514500
     32 H1           1.7600    -0.8850    -0.5110 h1         1 2Y1       0.017700
     33 H2           1.7600     0.8850    -0.5110 h1         1 2Y1       0.017700
     34 H3           2.9880     0.0880     1.4450 h1         1 2Y1       0.013200
     35 H4           1.4770     0.8370     1.9790 h1         1 2Y1       0.013200
     36 H5           2.8890     0.5190     3.4870 ha         1 2Y1       0.130000
     37 H6           1.4570    -5.1620     4.5270 h1         1 2Y1      -0.001633
     38 H7          -0.0510    -4.4050     5.0600 h1         1 2Y1      -0.001633
     39 H8          -0.0230    -5.3780     3.5830 h1         1 2Y1      -0.001633
     40 H9           1.6840    -3.6200     5.9160 ha         1 2Y1       0.126000
     41 H10          2.9690    -1.8600     7.0610 ha         1 2Y1       0.129000
     42 H11          5.7020     4.0320     8.1470 hc         1 2Y1       0.027200
     43 H12          5.3830     4.5570     6.4880 hc         1 2Y1       0.027200
     44 H13          7.6980     2.7940     7.3710 hc         1 2Y1       0.023200
     45 H14          7.3790     3.3210     5.7130 hc         1 2Y1       0.023200
     46 H15          8.0240     5.0960     8.0920 hc         1 2Y1       0.001367
     47 H16          9.0540     4.7960     6.6860 hc         1 2Y1       0.001367
     48 H17          7.5450     5.7010     6.5010 hc         1 2Y1       0.001367
     49 H18          6.1380     2.3510     9.1930 h1         1 2Y1       0.069700
     50 H19          3.3670     2.0970     9.5240 hc         1 2Y1       0.019033
     51 H20          4.5220     2.6490    10.7450 hc         1 2Y1       0.019033
     52 H21          4.0550     0.9440    10.6760 hc         1 2Y1       0.019033
     53 H22          7.1060     3.4000    14.2870 hn         1 2Y1       0.270800
     54 H23          6.6000     3.9380    12.7190 hn         1 2Y1       0.270800
     55 H24          8.2180     1.2290    14.5400 ha         1 2Y1       0.129000
     56 H25          8.8340    -2.1630    13.3140 hn         1 2Y1       0.270800
     57 H26          9.0800    -1.0470    14.6180 hn         1 2Y1       0.270800
@<TRIPOS>BOND
     1     1     2 1   
     2     2     3 1   
     3     2    32 1   
     4     2    33 1   
     5     3     4 1   
     6     3    34 1   
     7     3    35 1   
     8     4     5 1   
     9     5     6 ar  
    10     5     7 ar  
    11     6    12 ar  
    12     6    36 1   
    13     7     8 1   
    14     7    10 ar  
    15     8     9 1   
    16     9    37 1   
    17     9    38 1   
    18     9    39 1   
    19    10    11 ar  
    20    10    40 1   
    21    11    12 ar  
    22    11    41 1   
    23    12    13 1   
    24    13    14 2   
    25    13    15 1   
    26    14    20 1   
    27    15    16 1   
    28    16    17 1   
    29    16    20 2   
    30    17    18 1   
    31    17    42 1   
    32    17    43 1   
    33    18    19 1   
    34    18    44 1   
    35    18    45 1   
    36    19    46 1   
    37    19    47 1   
    38    19    48 1   
    39    20    21 1   
    40    21    22 1   
    41    21    23 1   
    42    21    49 1   
    43    22    50 1   
    44    22    51 1   
    45    22    52 1   
    46    23    24 1   
    47    24    25 ar  
    48    24    26 ar  
    49    25    30 ar  
    50    26    27 ar  
    51    27    28 1   
    52    27    29 ar  
    53    28    53 1   
    54    28    54 1   
    55    29    30 ar  
    56    29    55 1   
    57    30    31 1   
    58    31    56 1   
    59    31    57 1   
@<TRIPOS>SUBSTRUCTURE
     1 2Y1         1 TEMP              0 ****  ****    0 ROOT
