@<TRIPOS>MOLECULE
molecule
   57    59     1     0     0
SMALL
bcc


@<TRIPOS>ATOM
      1 FAF          0.0000     0.0000     0.0000 f          1 2Y1      -0.239300
      2 CAL          1.3990     0.0000     0.0000 c3         1 2Y1       0.169900
      3 CAM          1.9090     0.0000     1.4430 c3         1 2Y1       0.101400
      4 OAS          1.5300    -1.2200     2.0820 os         1 2Y1      -0.305900
      5 CAZ          1.9080    -1.3820     3.3780 ca         1 2Y1       0.114100
      6 CAJ          2.6260    -0.3880     4.0180 ca         1 2Y1      -0.178000
      7 CAY          1.5670    -2.5460     4.0640 ca         1 2Y1       0.134100
      8 OAR          0.8570    -3.5190     3.4360 os         1 2Y1      -0.309900
      9 CAB          0.5410    -4.6870     4.1980 c3         1 2Y1       0.126700
     10 CAH          1.9500    -2.7130     5.3860 ca         1 2Y1      -0.199000
     11 CAG          2.6710    -1.7270     6.0280 ca         1 2Y1      -0.076000
     12 CAX          3.0120    -0.5570     5.3490 ca         1 2Y1      -0.131500
     13 CBC          3.7840     0.5010     6.0350 cc         1 2Y1       0.544900
     14 NAQ          4.2010     0.4520     7.2690 nd         1 2Y1      -0.670000
     15 SAU          4.2960     2.0240     5.3150 ss         1 2Y1      -0.250300
     16 CBB          5.0610     2.4810     6.8360 cc         1 2Y1      -0.115700
     17 CAN          5.8010     3.7670     7.1010 c3         1 2Y1      -0.001100
     18 CAK          7.2800     3.5840     6.7590 c3         1 2Y1      -0.083400
     19 CAA          8.0310     4.8900     7.0290 c3         1 2Y1      -0.093100
     20 CBD          4.8760     1.4880     7.7120 cd         1 2Y1       0.380600
     21 CBE          5.4070     1.5550     9.1200 c3         1 2Y1      -0.021900
     22 CAC          4.2540     1.8310    10.0870 c3         1 2Y1      -0.075100
     23 SAT          6.1870    -0.0220     9.5460 ss         1 2Y1      -0.209400
     24 C2           6.8330     0.3760    11.1370 ca         1 2Y1       0.858300
     25 N3           7.5010    -0.5480    11.8120 nb         1 2Y1      -0.847500
     26 N1           6.6430     1.5930    11.6240 nb         1 2Y1      -0.847500
     27 C6           7.1170     1.9300    12.8210 ca         1 2Y1       0.766700
     28 NAD          6.9140     3.2050    13.3240 nv         1 2Y1      -1.005000
     29 C5           7.8200     0.9840    13.5620 ca         1 2Y1      -0.533600
     30 C4           8.0030    -0.2830    13.0150 ca         1 2Y1       0.766700
     31 NAE          8.6970    -1.2570    13.7170 nv         1 2Y1      -1.005000
     32 H1           1.7600    -0.8850    -0.5110 h1         1 2Y1       0.055700
     33 H2           1.7600     0.8850    -0.5110 h1         1 2Y1       0.055700
     34 H3           2.9880     0.0880     1.4450 h1         1 2Y1       0.045200
     35 H4           1.4770     0.8370     1.9790 h1         1 2Y1       0.045200
     36 H5           2.8890     0.5190     3.4870 ha         1 2Y1       0.142000
     37 H6           1.4570    -5.1620     4.5270 h1         1 2Y1       0.042700
     38 H7          -0.0510    -4.4050     5.0600 h1         1 2Y1       0.042700
     39 H8          -0.0230    -5.3780     3.5830 h1         1 2Y1       0.042700
     40 H9           1.6840    -3.6200     5.9160 ha         1 2Y1       0.147000
     41 H10          2.9690    -1.8600     7.0610 ha         1 2Y1       0.161000
     42 H11          5.7020     4.0320     8.1470 hc         1 2Y1       0.057200
     43 H12          5.3830     4.5570     6.4880 hc         1 2Y1       0.057200
     44 H13          7.6980     2.7940     7.3710 hc         1 2Y1       0.050200
     45 H14          7.3790     3.3210     5.7130 hc         1 2Y1       0.050200
     46 H15          8.0240     5.0960     8.0920 hc         1 2Y1       0.034700
     47 H16          9.0540     4.7960     6.6860 hc         1 2Y1       0.034700
     48 H17          7.5450     5.7010     6.5010 hc         1 2Y1       0.034700
     49 H18          6.1380     2.3510     9.1930 h1         1 2Y1       0.091700
     50 H19          3.3670     2.0970     9.5240 hc         1 2Y1       0.047700
     51 H20          4.5220     2.6490    10.7450 hc         1 2Y1       0.047700
     52 H21          4.0550     0.9440    10.6760 hc         1 2Y1       0.047700
     53 H22          7.1060     3.4000    14.2870 hn         1 2Y1       0.440800
     54 H23          6.6000     3.9380    12.7190 hn         1 2Y1       0.440800
     55 H24          8.2180     1.2290    14.5400 ha         1 2Y1       0.135000
     56 H25          8.8340    -2.1630    13.3140 hn         1 2Y1       0.440800
     57 H26          9.0800    -1.0470    14.6180 hn         1 2Y1       0.440800
@<TRIPOS>BOND
     1    18    17 1
     2    18    19 1
     3    17    16 1
     4    15    16 1
     5    15    13 1
     6    16    20 2
     7    29    27 ar
     8    29    30 ar
     9    28    27 1
    10    31    30 1
    11    11    10 ar
    12    11    12 ar
    13    27    26 ar
    14    30    25 ar
    15    13    12 1
    16    13    14 2
    17    26    24 ar
    18    25    24 ar
    19    10     7 ar
    20    12     6 ar
    21    24    23 1
    22     9     8 1
    23    20    14 1
    24    20    21 1
    25    23    21 1
    26     7     8 1
    27     7     5 ar
    28     6     5 ar
    29     5     4 1
    30    21    22 1
    31     4     3 1
    32     3     2 1
    33     2     1 1
    34     2    32 1
    35     2    33 1
    36     3    34 1
    37     3    35 1
    38     6    36 1
    39     9    37 1
    40     9    38 1
    41     9    39 1
    42    10    40 1
    43    11    41 1
    44    17    42 1
    45    17    43 1
    46    18    44 1
    47    18    45 1
    48    19    46 1
    49    19    47 1
    50    19    48 1
    51    21    49 1
    52    22    50 1
    53    22    51 1
    54    22    52 1
    55    28    53 1
    56    28    54 1
    57    29    55 1
    58    31    56 1
    59    31    57 1
@<TRIPOS>SUBSTRUCTURE
     1 2Y1         1 TEMP              0 ****  ****    0 ROOT
