@<TRIPOS>MOLECULE
2Y6
   59    63     1     0     0
SMALL
bcc


@<TRIPOS>ATOM
      1 Cl1          0.0000     0.0000     0.0000 cl         1 2Y6      -0.021400
      2 C23          1.7350     0.0000     0.0000 ca         1 2Y6      -0.020600
      3 C22          2.4280     0.0000     1.1980 ca         1 2Y6      -0.097000
      4 C21          3.8100    -0.0010     1.1970 ca         1 2Y6      -0.089000
      5 C20          4.5000    -0.0020    -0.0010 ca         1 2Y6      -0.098000
      6 C19          3.8090    -0.0030    -1.1980 ca         1 2Y6      -0.085000
      7 C18          2.4270    -0.0070    -1.1980 ca         1 2Y6      -0.118300
      8 C17          1.6740    -0.0150    -2.5040 c3         1 2Y6       0.349000
      9 N2           2.5540     0.4510    -3.5780 n7         1 2Y6      -0.586100
     10 S2           2.5360     2.0430    -4.0310 s6         1 2Y6       0.985900
     11 O2           3.4780     2.1160    -5.0920 o          1 2Y6      -0.578800
     12 O3           1.1630     2.3300    -4.2500 o          1 2Y6      -0.578800
     13 C24          3.1490     2.9350    -2.5750 cx         1 2Y6      -0.132900
     14 C25          3.1420     4.4650    -2.6280 cx         1 2Y6      -0.016400
     15 C26          2.1300     3.7240    -1.7500 cx         1 2Y6      -0.016400
     16 C8           1.2080    -1.4160    -2.8070 cc         1 2Y6      -0.032600
     17 C7          -0.0150    -1.8560    -2.5900 cd         1 2Y6      -0.080200
     18 S1           2.2240    -2.6660    -3.5010 ss         1 2Y6      -0.170500
     19 C5           0.9100    -3.8360    -3.4820 ca         1 2Y6       0.073900
     20 C6          -0.2400    -3.2440    -2.9600 ca         1 2Y6      -0.085800
     21 C3          -1.4180    -4.0150    -2.8570 ca         1 2Y6      -0.047000
     22 C2          -1.4330    -5.3260    -3.2620 ca         1 2Y6      -0.111000
     23 C1          -0.2920    -5.9170    -3.7810 ca         1 2Y6      -0.083000
     24 C4           0.8790    -5.1830    -3.8970 cp         1 2Y6      -0.110500
     25 C9           2.0980    -5.8160    -4.4520 cp         1 2Y6       0.427800
     26 C13          2.0620    -7.1500    -4.8550 ca         1 2Y6      -0.186300
     27 N1           3.2140    -5.1070    -4.5660 nb         1 2Y6      -0.562000
     28 C10          4.3190    -5.6320    -5.0550 ca         1 2Y6       0.408200
     29 C11          4.3550    -6.9510    -5.4690 ca         1 2Y6      -0.226300
     30 C12          3.2090    -7.7270    -5.3710 ca         1 2Y6      -0.054300
     31 C14          3.2140    -9.1670    -5.8140 c3         1 2Y6       0.222100
     32 C15          4.2250    -9.3500    -6.9480 c3         1 2Y6      -0.031100
     33 C16          3.6030   -10.0620    -4.6350 c3         1 2Y6      -0.031100
     34 O1           1.9100    -9.5290    -6.2750 oh         1 2Y6      -0.587800
     35 H1           1.8870     0.0010     2.1370 ha         1 2Y6       0.115000
     36 H2           4.3520     0.0000     2.1340 ha         1 2Y6       0.106000
     37 H3           5.5840    -0.0010    -0.0010 ha         1 2Y6       0.106000
     38 H4           4.3520    -0.0070    -2.1360 ha         1 2Y6       0.119000
     39 H5           0.8160     0.6420    -2.4300 h1         1 2Y6       0.061700
     40 H6           3.1340    -0.2010    -4.0680 hn         1 2Y6       0.368800
     41 H7           3.9610     2.5050    -2.0020 h1         1 2Y6       0.103700
     42 H8           2.7430     4.8990    -3.5370 hc         1 2Y6       0.053200
     43 H9           3.9510     4.9540    -2.0990 hc         1 2Y6       0.053200
     44 H10          1.1130     3.7070    -2.1220 hc         1 2Y6       0.053200
     45 H11          2.3210     3.7620    -0.6840 hc         1 2Y6       0.053200
     46 H12         -0.7930    -1.2310    -2.1690 ha         1 2Y6       0.128000
     47 H13         -2.3190    -3.5680    -2.4540 ha         1 2Y6       0.104000
     48 H14         -2.3440    -5.9050    -3.1740 ha         1 2Y6       0.106000
     49 H15         -0.3150    -6.9530    -4.0980 ha         1 2Y6       0.116000
     50 H16          1.1490    -7.7260    -4.7640 ha         1 2Y6       0.137000
     51 H17          5.2110    -5.0230    -5.1310 h4         1 2Y6      -0.018900
     52 H18          5.2680    -7.3730    -5.8690 ha         1 2Y6       0.121000
     53 H19          4.0540    -8.5980    -7.7090 hc         1 2Y6       0.014700
     54 H20          5.2290    -9.2460    -6.5560 hc         1 2Y6       0.014700
     55 H21          4.1070   -10.3350    -7.3820 hc         1 2Y6       0.014700
     56 H22          3.7460   -11.0770    -4.9840 hc         1 2Y6       0.014700
     57 H23          2.8150   -10.0430    -3.8920 hc         1 2Y6       0.014700
     58 H24          4.5240    -9.6990    -4.1950 hc         1 2Y6       0.014700
     59 H25          1.9400   -10.3910    -6.6560 ho         1 2Y6       0.397000
@<TRIPOS>BOND
     1     1     2 1   
     2     2     3 ar  
     3     2     7 ar  
     4     3     4 ar  
     5     3    35 1   
     6     4     5 ar  
     7     4    36 1   
     8     5     6 ar  
     9     5    37 1   
    10     6     7 ar  
    11     6    38 1   
    12     7     8 1   
    13     8     9 1   
    14     8    16 1   
    15     8    39 1   
    16     9    10 1   
    17     9    40 1   
    18    10    11 2   
    19    10    12 2   
    20    10    13 1   
    21    13    14 1   
    22    13    15 1   
    23    13    41 1   
    24    14    15 1   
    25    14    42 1   
    26    14    43 1   
    27    15    44 1   
    28    15    45 1   
    29    16    17 2   
    30    16    18 1   
    31    17    20 1   
    32    17    46 1   
    33    18    19 1   
    34    19    20 ar  
    35    19    24 ar  
    36    20    21 ar  
    37    21    22 ar  
    38    21    47 1   
    39    22    23 ar  
    40    22    48 1   
    41    23    24 ar  
    42    23    49 1   
    43    24    25 1   
    44    25    26 ar  
    45    25    27 ar  
    46    26    30 ar  
    47    26    50 1   
    48    27    28 ar  
    49    28    29 ar  
    50    28    51 1   
    51    29    30 ar  
    52    29    52 1   
    53    30    31 1   
    54    31    32 1   
    55    31    33 1   
    56    31    34 1   
    57    32    53 1   
    58    32    54 1   
    59    32    55 1   
    60    33    56 1   
    61    33    57 1   
    62    33    58 1   
    63    34    59 1   
@<TRIPOS>SUBSTRUCTURE
     1 2Y6         1 TEMP              0 ****  ****    0 ROOT
