@<TRIPOS>MOLECULE
molecule
   59    63     1     0     0
SMALL
bcc


@<TRIPOS>ATOM
      1 Cl1          0.0000     0.0000     0.0000 cl         1 2Y6      -0.105400
      2 C23          1.7350     0.0000     0.0000 ca         1 2Y6       0.040400
      3 C22          2.4280     0.0000     1.1980 ca         1 2Y6      -0.119000
      4 C21          3.8100    -0.0010     1.1970 ca         1 2Y6      -0.117000
      5 C20          4.5000    -0.0020    -0.0010 ca         1 2Y6      -0.127000
      6 C19          3.8090    -0.0030    -1.1980 ca         1 2Y6      -0.108000
      7 C18          2.4270    -0.0070    -1.1980 ca         1 2Y6      -0.103300
      8 C17          1.6740    -0.0150    -2.5040 c3         1 2Y6       0.368000
      9 N2           2.5540     0.4510    -3.5780 n7         1 2Y6      -0.904100
     10 S2           2.5360     2.0430    -4.0310 s6         1 2Y6       1.361900
     11 O2           3.4780     2.1160    -5.0920 o          1 2Y6      -0.626800
     12 O3           1.1630     2.3300    -4.2500 o          1 2Y6      -0.626800
     13 C24          3.1490     2.9350    -2.5750 cx         1 2Y6      -0.307900
     14 C25          3.1420     4.4650    -2.6280 cx         1 2Y6      -0.079900
     15 C26          2.1300     3.7240    -1.7500 cx         1 2Y6      -0.079900
     16 C8           1.2080    -1.4160    -2.8070 cc         1 2Y6      -0.075600
     17 C7          -0.0150    -1.8560    -2.5900 cd         1 2Y6      -0.108200
     18 S1           2.2240    -2.6660    -3.5010 ss         1 2Y6      -0.017500
     19 C5           0.9100    -3.8360    -3.4820 ca         1 2Y6       0.019900
     20 C6          -0.2400    -3.2440    -2.9600 ca         1 2Y6      -0.087800
     21 C3          -1.4180    -4.0150    -2.8570 ca         1 2Y6      -0.075000
     22 C2          -1.4330    -5.3260    -3.2620 ca         1 2Y6      -0.142000
     23 C1          -0.2920    -5.9170    -3.7810 ca         1 2Y6      -0.098000
     24 C4           0.8790    -5.1830    -3.8970 cp         1 2Y6      -0.118500
     25 C9           2.0980    -5.8160    -4.4520 cp         1 2Y6       0.477800
     26 C13          2.0620    -7.1500    -4.8550 ca         1 2Y6      -0.211300
     27 N1           3.2140    -5.1070    -4.5660 nb         1 2Y6      -0.696000
     28 C10          4.3190    -5.6320    -5.0550 ca         1 2Y6       0.428200
     29 C11          4.3550    -6.9510    -5.4690 ca         1 2Y6      -0.255300
     30 C12          3.2090    -7.7270    -5.3710 ca         1 2Y6      -0.033300
     31 C14          3.2140    -9.1670    -5.8140 c3         1 2Y6       0.194100
     32 C15          4.2250    -9.3500    -6.9480 c3         1 2Y6      -0.117600
     33 C16          3.6030   -10.0620    -4.6350 c3         1 2Y6      -0.117600
     34 O1           1.9100    -9.5290    -6.2750 oh         1 2Y6      -0.601800
     35 H1           1.8870     0.0010     2.1370 ha         1 2Y6       0.146000
     36 H2           4.3520     0.0000     2.1340 ha         1 2Y6       0.138000
     37 H3           5.5840    -0.0010    -0.0010 ha         1 2Y6       0.136000
     38 H4           4.3520    -0.0070    -2.1360 ha         1 2Y6       0.142000
     39 H5           0.8160     0.6420    -2.4300 h1         1 2Y6       0.097700
     40 H6           3.1340    -0.2010    -4.0680 hn         1 2Y6       0.462800
     41 H7           3.9610     2.5050    -2.0020 h1         1 2Y6       0.128700
     42 H8           2.7430     4.8990    -3.5370 hc         1 2Y6       0.087700
     43 H9           3.9510     4.9540    -2.0990 hc         1 2Y6       0.087700
     44 H10          1.1130     3.7070    -2.1220 hc         1 2Y6       0.087700
     45 H11          2.3210     3.7620    -0.6840 hc         1 2Y6       0.087700
     46 H12         -0.7930    -1.2310    -2.1690 ha         1 2Y6       0.154000
     47 H13         -2.3190    -3.5680    -2.4540 ha         1 2Y6       0.134000
     48 H14         -2.3440    -5.9050    -3.1740 ha         1 2Y6       0.134000
     49 H15         -0.3150    -6.9530    -4.0980 ha         1 2Y6       0.140000
     50 H16          1.1490    -7.7260    -4.7640 ha         1 2Y6       0.158000
     51 H17          5.2110    -5.0230    -5.1310 h4         1 2Y6       0.024100
     52 H18          5.2680    -7.3730    -5.8690 ha         1 2Y6       0.140000
     53 H19          4.0540    -8.5980    -7.7090 hc         1 2Y6       0.046033
     54 H20          5.2290    -9.2460    -6.5560 hc         1 2Y6       0.046033
     55 H21          4.1070   -10.3350    -7.3820 hc         1 2Y6       0.046033
     56 H22          3.7460   -11.0770    -4.9840 hc         1 2Y6       0.046033
     57 H23          2.8150   -10.0430    -3.8920 hc         1 2Y6       0.046033
     58 H24          4.5240    -9.6990    -4.1950 hc         1 2Y6       0.046033
     59 H25          1.9400   -10.3910    -6.6560 ho         1 2Y6       0.408000
@<TRIPOS>BOND
     1    33    31 1   
     2    32    31 1   
     3    31    34 1   
     4    31    30 1   
     5    29    30 ar  
     6    29    28 ar  
     7    30    26 ar  
     8    28    27 ar  
     9    26    25 ar  
    10    27    25 ar  
    11    25    24 1   
    12     3     4 ar  
    13     3     2 ar  
    14     4     5 ar  
    15    24    23 ar  
    16    24    19 ar  
    17     1     2 1   
    18     2     7 ar  
    19    23    22 ar  
    20    18    19 1   
    21    18    16 1   
    22     5     6 ar  
    23    19    20 ar  
    24     7     6 ar  
    25     7     8 1   
    26    22    21 ar  
    27    16     8 1   
    28    16    17 2   
    29    20    21 ar  
    30    20    17 1   
    31     8     9 1   
    32     9    10 1   
    33    12    10 2   
    34    14    15 1   
    35    14    13 1   
    36    10    13 1   
    37    10    11 2   
    38    15    13 1   
    39     3    35 1   
    40     4    36 1   
    41     5    37 1   
    42     6    38 1   
    43     8    39 1   
    44     9    40 1   
    45    13    41 1   
    46    14    42 1   
    47    14    43 1   
    48    15    44 1   
    49    15    45 1   
    50    17    46 1   
    51    21    47 1   
    52    22    48 1   
    53    23    49 1   
    54    26    50 1   
    55    28    51 1   
    56    29    52 1   
    57    32    53 1   
    58    32    54 1   
    59    32    55 1   
    60    33    56 1   
    61    33    57 1   
    62    33    58 1   
    63    34    59 1   
@<TRIPOS>SUBSTRUCTURE
     1 2Y6         1 TEMP              0 ****  ****    0 ROOT
