@<TRIPOS>MOLECULE
2Y7
   51    53     1     0     0
SMALL
bcc


@<TRIPOS>ATOM
      1 FAF          0.0000     0.0000     0.0000 f          1 2Y7      -0.226300
      2 CAK          1.3990     0.0000     0.0000 c3         1 2Y7       0.213900
      3 CAL          1.9090     0.0000     1.4420 c3         1 2Y7       0.164400
      4 OAQ          1.5310    -1.2210     2.0810 os         1 2Y7      -0.282900
      5 CAY          1.9110    -1.3830     3.3760 ca         1 2Y7       0.115100
      6 CAJ          2.6280    -0.3880     4.0170 ca         1 2Y7      -0.167000
      7 CAX          1.5710    -2.5470     4.0620 ca         1 2Y7       0.136100
      8 OAP          0.8610    -3.5210     3.4340 os         1 2Y7      -0.290900
      9 CAA          0.5470    -4.6890     4.1960 c3         1 2Y7       0.241700
     10 CAH          1.9550    -2.7140     5.3840 ca         1 2Y7      -0.186000
     11 CAG          2.6750    -1.7280     6.0270 ca         1 2Y7      -0.051000
     12 CAW          3.0150    -0.5580     5.3470 ca         1 2Y7      -0.132500
     13 CBA          3.7860     0.5000     6.0340 cc         1 2Y7       0.535900
     14 NAO          4.2040     0.4510     7.2660 nd         1 2Y7      -0.536000
     15 SAS          4.2960     2.0250     5.3140 ss         1 2Y7      -0.340300
     16 CAV          5.0620     2.4820     6.8340 cc         1 2Y7      -0.086700
     17 CAB          5.8010     3.7680     7.1000 c3         1 2Y7       0.109200
     18 CBB          4.8790     1.4870     7.7100 cd         1 2Y7       0.336600
     19 CBC          5.4140     1.5520     9.1170 c3         1 2Y7       0.043100
     20 CAC          6.6400     0.6460     9.2380 c3         1 2Y7      -0.000100
     21 SAR          4.1370     0.9980    10.2740 ss         1 2Y7      -0.360400
     22 C2           4.9540     1.3120    11.8030 ca         1 2Y7       0.799300
     23 N3           6.1740     1.8280    11.7890 nb         1 2Y7      -0.700000
     24 N1           4.3300     1.0310    12.9380 nb         1 2Y7      -0.700000
     25 C6           4.9160     1.2540    14.1120 ca         1 2Y7       0.568700
     26 NAD          4.2550     0.9570    15.2950 nv         1 2Y7      -0.580000
     27 C5           6.2000     1.7910    14.1370 ca         1 2Y7      -0.452600
     28 C4           6.8210     2.0790    12.9250 ca         1 2Y7       0.568700
     29 NAE          8.0980     2.6190    12.9020 nv         1 2Y7      -0.580000
     30 H1           1.7600    -0.8850    -0.5110 h1         1 2Y7       0.017700
     31 H2           1.7600     0.8840    -0.5110 h1         1 2Y7       0.017700
     32 H3           2.9890     0.0890     1.4440 h1         1 2Y7       0.013200
     33 H4           1.4770     0.8370     1.9780 h1         1 2Y7       0.013200
     34 H5           2.8890     0.5190     3.4870 ha         1 2Y7       0.130000
     35 H6           1.4640    -5.1630     4.5240 h1         1 2Y7      -0.001300
     36 H7          -0.0170    -5.3800     3.5810 h1         1 2Y7      -0.001300
     37 H8          -0.0440    -4.4090     5.0590 h1         1 2Y7      -0.001300
     38 H9           1.6910    -3.6220     5.9130 ha         1 2Y7       0.126000
     39 H10          2.9750    -1.8610     7.0590 ha         1 2Y7       0.129000
     40 H11          6.8080     3.5450     7.4320 hc         1 2Y7       0.015033
     41 H12          5.2830     4.3290     7.8690 hc         1 2Y7       0.015033
     42 H13          5.8420     4.3550     6.1910 hc         1 2Y7       0.015033
     43 H14          5.6940     2.5720     9.3500 h1         1 2Y7       0.064700
     44 H15          6.9060     0.2650     8.2590 hc         1 2Y7       0.018367
     45 H16          7.4700     1.2130     9.6420 hc         1 2Y7       0.018367
     46 H17          6.4140    -0.1820     9.8990 hc         1 2Y7       0.018367
     47 H18          3.5180     1.5510    15.6180 hn         1 2Y7       0.275550
     48 H19          4.4970     0.1340    15.8090 hn         1 2Y7       0.275550
     49 H20          6.7020     1.9840    15.0780 ha         1 2Y7       0.131000
     50 H21          8.4910     2.9370    12.0390 hn         1 2Y7       0.275550
     51 H22          8.6280     2.6860    13.7480 hn         1 2Y7       0.275550
@<TRIPOS>BOND
     1     1     2 1   
     2     2     3 1   
     3     2    30 1   
     4     2    31 1   
     5     3     4 1   
     6     3    32 1   
     7     3    33 1   
     8     4     5 1   
     9     5     6 ar  
    10     5     7 ar  
    11     6    12 ar  
    12     6    34 1   
    13     7     8 1   
    14     7    10 ar  
    15     8     9 1   
    16     9    35 1   
    17     9    36 1   
    18     9    37 1   
    19    10    11 ar  
    20    10    38 1   
    21    11    12 ar  
    22    11    39 1   
    23    12    13 1   
    24    13    14 2   
    25    13    15 1   
    26    14    18 1   
    27    15    16 1   
    28    16    17 1   
    29    16    18 2   
    30    17    40 1   
    31    17    41 1   
    32    17    42 1   
    33    18    19 1   
    34    19    20 1   
    35    19    21 1   
    36    19    43 1   
    37    20    44 1   
    38    20    45 1   
    39    20    46 1   
    40    21    22 1   
    41    22    23 ar  
    42    22    24 ar  
    43    23    28 ar  
    44    24    25 ar  
    45    25    26 1   
    46    25    27 ar  
    47    26    47 1   
    48    26    48 1   
    49    27    28 ar  
    50    27    49 1   
    51    28    29 1   
    52    29    50 1   
    53    29    51 1   
@<TRIPOS>SUBSTRUCTURE
     1 2Y7         1 TEMP              0 ****  ****    0 ROOT
