@<TRIPOS>MOLECULE
2Y8
   51    53     1     0     0
SMALL
bcc


@<TRIPOS>ATOM
      1 FAF          0.0000     0.0000     0.0000 f          1 2Y8      -0.226300
      2 CAK          1.3990     0.0000     0.0000 c3         1 2Y8       0.213900
      3 CAL          1.9090     0.0000     1.4420 c3         1 2Y8       0.164400
      4 OAQ          1.5310    -1.2210     2.0820 os         1 2Y8      -0.283900
      5 CAY          1.9100    -1.3820     3.3780 ca         1 2Y8       0.115100
      6 CAJ          2.6270    -0.3880     4.0160 ca         1 2Y8      -0.167000
      7 CAX          1.5690    -2.5460     4.0630 ca         1 2Y8       0.136100
      8 OAP          0.8600    -3.5210     3.4350 os         1 2Y8      -0.290900
      9 CAA          0.5450    -4.6880     4.1970 c3         1 2Y8       0.241700
     10 CAH          1.9530    -2.7130     5.3860 ca         1 2Y8      -0.186000
     11 CAG          2.6740    -1.7280     6.0280 ca         1 2Y8      -0.051000
     12 CAW          3.0140    -0.5570     5.3480 ca         1 2Y8      -0.133500
     13 CBA          3.7810     0.5030     6.0360 cc         1 2Y8       0.535900
     14 NAO          4.1980     0.4540     7.2700 nd         1 2Y8      -0.537000
     15 SAS          4.2840     2.0310     5.3180 ss         1 2Y8      -0.340300
     16 CAV          5.0470     2.4890     6.8400 cc         1 2Y8      -0.086700
     17 CAB          5.7800     3.7790     7.1080 c3         1 2Y8       0.109200
     18 CBB          4.8680     1.4940     7.7140 cd         1 2Y8       0.337600
     19 CBC          5.4030     1.5580     9.1210 c3         1 2Y8       0.042100
     20 CAC          4.2510     1.8270    10.0930 c3         1 2Y8      -0.001100
     21 SAR          6.1910    -0.0160     9.5400 ss         1 2Y8      -0.360400
     22 C2           6.8410     0.3800    11.1300 ca         1 2Y8       0.799300
     23 N3           6.6380     1.5920    11.6260 nb         1 2Y8      -0.698500
     24 N1           7.5150    -0.5430    11.7990 nb         1 2Y8      -0.698500
     25 C6           8.0200    -0.2800    13.0020 ca         1 2Y8       0.569200
     26 NAD          8.7250    -1.2510    13.6960 nv         1 2Y8      -0.580500
     27 C5           7.8320     0.9840    13.5540 ca         1 2Y8      -0.455600
     28 C4           7.1140     1.9270    12.8230 ca         1 2Y8       0.569200
     29 NAE          6.8960     3.1960    13.3360 nv         1 2Y8      -0.580500
     30 H1           1.7600    -0.8840    -0.5110 h1         1 2Y8       0.017700
     31 H2           1.7600     0.8840    -0.5110 h1         1 2Y8       0.017700
     32 H3           1.4780     0.8370     1.9780 h1         1 2Y8       0.013200
     33 H4           2.9890     0.0890     1.4420 h1         1 2Y8       0.013200
     34 H5           2.8890     0.5190     3.4860 ha         1 2Y8       0.130000
     35 H6          -0.0190    -5.3790     3.5820 h1         1 2Y8      -0.001633
     36 H7          -0.0470    -4.4070     5.0600 h1         1 2Y8      -0.001633
     37 H8           1.4610    -5.1620     4.5260 h1         1 2Y8      -0.001633
     38 H9           1.6880    -3.6200     5.9150 ha         1 2Y8       0.126000
     39 H10          2.9730    -1.8610     7.0600 ha         1 2Y8       0.129000
     40 H11          6.8320     3.5710     7.2620 hc         1 2Y8       0.015033
     41 H12          5.6630     4.4430     6.2610 hc         1 2Y8       0.015033
     42 H13          5.3710     4.2490     7.9940 hc         1 2Y8       0.015033
     43 H14          6.1310     2.3570     9.1950 h1         1 2Y8       0.064700
     44 H15          3.3590     2.0820     9.5330 hc         1 2Y8       0.018700
     45 H16          4.0640     0.9400    10.6850 hc         1 2Y8       0.018700
     46 H17          4.5150     2.6490    10.7470 hc         1 2Y8       0.018700
     47 H18          8.2870    -1.7440    14.4490 hn         1 2Y8       0.276050
     48 H19          9.6760    -1.4460    13.4550 hn         1 2Y8       0.276050
     49 H20          8.2320     1.2270    14.5310 ha         1 2Y8       0.130000
     50 H21          6.4240     3.8840    12.7830 hn         1 2Y8       0.276050
     51 H22          7.2270     3.4300    14.2510 hn         1 2Y8       0.276050
@<TRIPOS>BOND
     1     1     2 1   
     2     2     3 1   
     3     2    30 1   
     4     2    31 1   
     5     3     4 1   
     6     3    32 1   
     7     3    33 1   
     8     4     5 1   
     9     5     6 ar  
    10     5     7 ar  
    11     6    12 ar  
    12     6    34 1   
    13     7     8 1   
    14     7    10 ar  
    15     8     9 1   
    16     9    35 1   
    17     9    36 1   
    18     9    37 1   
    19    10    11 ar  
    20    10    38 1   
    21    11    12 ar  
    22    11    39 1   
    23    12    13 1   
    24    13    14 2   
    25    13    15 1   
    26    14    18 1   
    27    15    16 1   
    28    16    17 1   
    29    16    18 2   
    30    17    40 1   
    31    17    41 1   
    32    17    42 1   
    33    18    19 1   
    34    19    20 1   
    35    19    21 1   
    36    19    43 1   
    37    20    44 1   
    38    20    45 1   
    39    20    46 1   
    40    21    22 1   
    41    22    23 ar  
    42    22    24 ar  
    43    23    28 ar  
    44    24    25 ar  
    45    25    26 1   
    46    25    27 ar  
    47    26    47 1   
    48    26    48 1   
    49    27    28 ar  
    50    27    49 1   
    51    28    29 1   
    52    29    50 1   
    53    29    51 1   
@<TRIPOS>SUBSTRUCTURE
     1 2Y8         1 TEMP              0 ****  ****    0 ROOT
