@<TRIPOS>MOLECULE
molecule
   51    53     1     0     0
SMALL
bcc


@<TRIPOS>ATOM
      1 FAF          0.0000     0.0000     0.0000 f          1 2Y8      -0.239300
      2 CAK          1.3990     0.0000     0.0000 c3         1 2Y8       0.169900
      3 CAL          1.9090     0.0000     1.4420 c3         1 2Y8       0.101400
      4 OAQ          1.5310    -1.2210     2.0820 os         1 2Y8      -0.305900
      5 CAY          1.9100    -1.3820     3.3780 ca         1 2Y8       0.114100
      6 CAJ          2.6270    -0.3880     4.0160 ca         1 2Y8      -0.177000
      7 CAX          1.5690    -2.5460     4.0630 ca         1 2Y8       0.134100
      8 OAP          0.8600    -3.5210     3.4350 os         1 2Y8      -0.309900
      9 CAA          0.5450    -4.6880     4.1970 c3         1 2Y8       0.126700
     10 CAH          1.9530    -2.7130     5.3860 ca         1 2Y8      -0.199000
     11 CAG          2.6740    -1.7280     6.0280 ca         1 2Y8      -0.075000
     12 CAW          3.0140    -0.5570     5.3480 ca         1 2Y8      -0.132500
     13 CBA          3.7810     0.5030     6.0360 cc         1 2Y8       0.546900
     14 NAO          4.1980     0.4540     7.2700 nc         1 2Y8      -0.670000
     15 SAS          4.2840     2.0310     5.3180 ss         1 2Y8      -0.250300
     16 CAV          5.0470     2.4890     6.8400 cd         1 2Y8      -0.117700
     17 CAB          5.7800     3.7790     7.1080 c3         1 2Y8      -0.010800
     18 CBB          4.8680     1.4940     7.7140 cc         1 2Y8       0.378600
     19 CBC          5.4030     1.5580     9.1210 c3         1 2Y8      -0.022900
     20 CAC          4.2510     1.8270    10.0930 c3         1 2Y8      -0.074100
     21 SAR          6.1910    -0.0160     9.5400 ss         1 2Y8      -0.205400
     22 C2           6.8410     0.3800    11.1300 ca         1 2Y8       0.832300
     23 N3           6.6380     1.5920    11.6260 nb         1 2Y8      -0.813000
     24 N1           7.5150    -0.5430    11.7990 nb         1 2Y8      -0.813000
     25 C6           8.0200    -0.2800    13.0020 ca         1 2Y8       0.749700
     26 NAD          8.7250    -1.2510    13.6960 nv         1 2Y8      -1.042000
     27 C5           7.8320     0.9840    13.5540 ca         1 2Y8      -0.475600
     28 C4           7.1140     1.9270    12.8230 ca         1 2Y8       0.749700
     29 NAE          6.8960     3.1960    13.3360 nv         1 2Y8      -1.042000
     30 H1           1.7600    -0.8840    -0.5110 h1         1 2Y8       0.055700
     31 H2           1.7600     0.8840    -0.5110 h1         1 2Y8       0.055700
     32 H3           1.4780     0.8370     1.9780 h1         1 2Y8       0.045200
     33 H4           2.9890     0.0890     1.4420 h1         1 2Y8       0.045200
     34 H5           2.8890     0.5190     3.4860 ha         1 2Y8       0.142000
     35 H6          -0.0190    -5.3790     3.5820 h1         1 2Y8       0.042700
     36 H7          -0.0470    -4.4070     5.0600 h1         1 2Y8       0.042700
     37 H8           1.4610    -5.1620     4.5260 h1         1 2Y8       0.042700
     38 H9           1.6880    -3.6200     5.9150 ha         1 2Y8       0.147000
     39 H10          2.9730    -1.8610     7.0600 ha         1 2Y8       0.161000
     40 H11          6.8320     3.5710     7.2620 hc         1 2Y8       0.051367
     41 H12          5.6630     4.4430     6.2610 hc         1 2Y8       0.051367
     42 H13          5.3710     4.2490     7.9940 hc         1 2Y8       0.051367
     43 H14          6.1310     2.3570     9.1950 h1         1 2Y8       0.089700
     44 H15          3.3590     2.0820     9.5330 hc         1 2Y8       0.047367
     45 H16          4.0640     0.9400    10.6850 hc         1 2Y8       0.047367
     46 H17          4.5150     2.6490    10.7470 hc         1 2Y8       0.047367
     47 H18          8.2870    -1.7440    14.4490 hn         1 2Y8       0.440800
     48 H19          9.6760    -1.4460    13.4550 hn         1 2Y8       0.440800
     49 H20          8.2320     1.2270    14.5310 ha         1 2Y8       0.143000
     50 H21          6.4240     3.8840    12.7830 hn         1 2Y8       0.440800
     51 H22          7.2270     3.4300    14.2510 hn         1 2Y8       0.440800
@<TRIPOS>BOND
     1     1     2 1   
     2     2     3 1   
     3     3     4 1   
     4     4     5 1   
     5    20    19 1   
     6     5     6 ar  
     7     5     7 ar  
     8     8     7 1   
     9     8     9 1   
    10     6    12 ar  
    11     7    10 ar  
    12    14    18 1   
    13    14    13 2   
    14    19    21 1   
    15    19    18 1   
    16    12    13 1   
    17    12    11 ar  
    18    21    22 1   
    19    10    11 ar  
    20    23    22 ar  
    21    23    28 ar  
    22    18    16 2   
    23    13    15 1   
    24    22    24 ar  
    25    29    28 1   
    26    28    27 ar  
    27    24    25 ar  
    28    27    25 ar  
    29    25    26 1   
    30    16    15 1   
    31    16    17 1   
    32     2    30 1   
    33     2    31 1   
    34     3    32 1   
    35     3    33 1   
    36     6    34 1   
    37     9    35 1   
    38     9    36 1   
    39     9    37 1   
    40    10    38 1   
    41    11    39 1   
    42    17    40 1   
    43    17    41 1   
    44    17    42 1   
    45    19    43 1   
    46    20    44 1   
    47    20    45 1   
    48    20    46 1   
    49    26    47 1   
    50    26    48 1   
    51    27    49 1   
    52    29    50 1   
    53    29    51 1   
@<TRIPOS>SUBSTRUCTURE
     1 2Y8         1 TEMP              0 ****  ****    0 ROOT
