@<TRIPOS>MOLECULE
2Y9
   76    78     1     0     0
SMALL
bcc


@<TRIPOS>ATOM
      1 C1           0.0000     0.0000     0.0000 c3         1 2Y9       0.143800
      2 C2           1.5300     0.0000     0.0000 c3         1 2Y9      -0.160700
      3 C3           2.0360     0.0000     1.4440 c3         1 2Y9       0.235100
      4 C4           1.4720     1.2220     2.1750 c3         1 2Y9      -0.138700
      5 C5          -0.0580     1.1850     2.1120 c3         1 2Y9       0.150800
      6 N6          -0.4910     1.1880     0.7090 n7         1 2Y9      -0.584200
      7 C7           2.0330    -1.2300    -0.7100 c          1 2Y9       0.597100
      8 C8           1.9170     1.1980     3.6140 c          1 2Y9       0.584100
      9 O9           2.6160     0.2940     4.0180 o          1 2Y9      -0.642100
     10 N10          1.8910    -1.3440    -2.0450 n          1 2Y9      -0.054300
     11 O11          2.5670    -2.1180    -0.0790 o          1 2Y9      -0.633100
     12 N12          1.5370     2.1820     4.4530 ns         1 2Y9      -0.189900
     13 O13          1.6030    -1.1920     2.1020 oh         1 2Y9      -0.581800
     14 C14          2.2930    -2.5800    -2.7210 cx         1 2Y9      -0.047300
     15 C15          1.3620    -0.2860    -2.7820 ca         1 2Y9       0.352200
     16 C16          1.2410    -3.2930    -3.5720 cx         1 2Y9      -0.095900
     17 C17          2.3930    -2.5490    -4.2480 cx         1 2Y9      -0.095900
     18 C18          2.0690     0.9070    -2.8810 ca         1 2Y9      -0.215300
     19 C19          1.5310     1.9490    -3.6160 ca         1 2Y9      -0.053000
     20 C20          0.3010     1.7610    -4.2300 ca         1 2Y9      -0.196600
     21 C21         -0.3470     0.5490    -4.0890 ca         1 2Y9       0.413200
     22 N22          0.1920    -0.4290    -3.3860 nb         1 2Y9      -0.579000
     23 C23         -0.3230     2.8680    -5.0400 c3         1 2Y9       0.008600
     24 C24         -0.5250     2.3940    -6.4810 c3         1 2Y9       0.004400
     25 C25         -1.6760     3.2440    -4.4330 c3         1 2Y9       0.004400
     26 C26          1.9700     2.1580     5.8530 c3         1 2Y9       0.007700
     27 C27          1.0090     1.2920     6.6700 c3         1 2Y9      -0.038400
     28 C28          1.1020    -0.1590     6.1930 c3         1 2Y9      -0.071700
     29 C29          2.4980    -0.7080     6.4950 c3         1 2Y9      -0.001100
     30 C30          0.0550    -1.0030     6.9220 c3         1 2Y9      -0.001100
     31 C31          1.9700     3.5830     6.4110 c3         1 2Y9       0.200400
     32 O32          0.6320     4.0850     6.4370 os         1 2Y9      -0.421600
     33 C33          0.5190     5.4150     6.9440 c3         1 2Y9       0.213400
     34 C34         -0.9490     5.8470     6.9260 c3         1 2Y9       0.000900
     35 H1          -0.3600     0.0170    -1.0220 h1         1 2Y9       0.026700
     36 H2          -0.3600    -0.8910     0.5000 h1         1 2Y9       0.026700
     37 H3           1.8890     0.8880    -0.5070 hc         1 2Y9       0.053700
     38 H4           3.1190     0.0480     1.4470 h1         1 2Y9       0.017700
     39 H5           1.8300     2.1250     1.6960 hc         1 2Y9       0.045700
     40 H6          -0.4160     0.2860     2.5980 h1         1 2Y9       0.018700
     41 H7          -0.4590     2.0570     2.6140 h1         1 2Y9       0.018700
     42 H8          -1.4910     1.2110     0.6680 hn         1 2Y9       0.256800
     43 H10          0.9930     2.9490     4.1110 hn         1 2Y9       0.184500
     44 H11          2.3460    -1.7520     2.2600 ho         1 2Y9       0.420000
     45 H12          3.0040    -3.2360    -2.2340 h1         1 2Y9       0.094700
     46 H13          0.2750    -2.8070    -3.6260 hc         1 2Y9       0.054700
     47 H14          1.3090    -4.3740    -3.5900 hc         1 2Y9       0.054700
     48 H15          2.1310    -1.6070    -4.7150 hc         1 2Y9       0.054700
     49 H16          3.1660    -3.1750    -4.6790 hc         1 2Y9       0.054700
     50 H17          3.0270     1.0190    -2.3890 ha         1 2Y9       0.125000
     51 H18          2.0590     2.8900    -3.7110 ha         1 2Y9       0.115000
     52 H19         -1.3070     0.3970    -4.5680 h4         1 2Y9      -0.008900
     53 H20          0.3290     3.7330    -5.0320 hc         1 2Y9       0.029700
     54 H21         -0.7770     3.2410    -7.1070 hc         1 2Y9       0.007367
     55 H22         -1.3290     1.6690    -6.5130 hc         1 2Y9       0.007367
     56 H23          0.3880     1.9370    -6.8420 hc         1 2Y9       0.007367
     57 H24         -2.3710     2.4240    -4.5630 hc         1 2Y9       0.007367
     58 H25         -1.5530     3.4490    -3.3760 hc         1 2Y9       0.007367
     59 H26         -2.0620     4.1270    -4.9290 hc         1 2Y9       0.007367
     60 H27          2.9700     1.7460     5.9150 h1         1 2Y9       0.066700
     61 H28         -0.0040     1.6520     6.5370 hc         1 2Y9       0.025700
     62 H29          1.2770     1.3450     7.7180 hc         1 2Y9       0.025700
     63 H30          0.9200    -0.2010     5.1260 hc         1 2Y9       0.055700
     64 H31          2.7030    -0.6100     7.5540 hc         1 2Y9       0.004533
     65 H32          2.5450    -1.7520     6.2130 hc         1 2Y9       0.004533
     66 H33          3.2360    -0.1480     5.9320 hc         1 2Y9       0.004533
     67 H34          0.1930    -0.9060     7.9920 hc         1 2Y9       0.004533
     68 H35          0.1660    -2.0430     6.6370 hc         1 2Y9       0.004533
     69 H36         -0.9370    -0.6600     6.6540 hc         1 2Y9       0.004533
     70 H37          2.5810     4.2180     5.7810 h1         1 2Y9      -0.001800
     71 H38          2.3730     3.5770     7.4170 h1         1 2Y9      -0.001800
     72 H39          0.8920     5.4470     7.9610 h1         1 2Y9      -0.012300
     73 H40          1.1010     6.0880     6.3250 h1         1 2Y9      -0.012300
     74 H41         -1.3150     5.8390     5.9070 hc         1 2Y9       0.009033
     75 H42         -1.0360     6.8470     7.3340 hc         1 2Y9       0.009033
     76 H43         -1.5340     5.1600     7.5260 hc         1 2Y9       0.009033
@<TRIPOS>BOND
     1     1     2 1   
     2     1     6 1   
     3     1    35 1   
     4     1    36 1   
     5     2     3 1   
     6     2     7 1   
     7     2    37 1   
     8     3     4 1   
     9     3    13 1   
    10     3    38 1   
    11     4     5 1   
    12     4     8 1   
    13     4    39 1   
    14     5     6 1   
    15     5    40 1   
    16     5    41 1   
    17     6    42 1   
    18     7    10 1   
    19     7    11 2   
    20     8     9 2   
    21     8    12 1   
    22    10    14 1   
    23    10    15 1   
    24    12    26 1   
    25    12    43 1   
    26    13    44 1   
    27    14    16 1   
    28    14    17 1   
    29    14    45 1   
    30    15    18 ar  
    31    15    22 ar  
    32    16    17 1   
    33    16    46 1   
    34    16    47 1   
    35    17    48 1   
    36    17    49 1   
    37    18    19 ar  
    38    18    50 1   
    39    19    20 ar  
    40    19    51 1   
    41    20    21 ar  
    42    20    23 1   
    43    21    22 ar  
    44    21    52 1   
    45    23    24 1   
    46    23    25 1   
    47    23    53 1   
    48    24    54 1   
    49    24    55 1   
    50    24    56 1   
    51    25    57 1   
    52    25    58 1   
    53    25    59 1   
    54    26    27 1   
    55    26    31 1   
    56    26    60 1   
    57    27    28 1   
    58    27    61 1   
    59    27    62 1   
    60    28    29 1   
    61    28    30 1   
    62    28    63 1   
    63    29    64 1   
    64    29    65 1   
    65    29    66 1   
    66    30    67 1   
    67    30    68 1   
    68    30    69 1   
    69    31    32 1   
    70    31    70 1   
    71    31    71 1   
    72    32    33 1   
    73    33    34 1   
    74    33    72 1   
    75    33    73 1   
    76    34    74 1   
    77    34    75 1   
    78    34    76 1   
@<TRIPOS>SUBSTRUCTURE
     1 2Y9         1 TEMP              0 ****  ****    0 ROOT
