@<TRIPOS>MOLECULE
2YA
   41    44     1     0     0
SMALL
bcc


@<TRIPOS>ATOM
      1 CL1         0.9800    1.5180    1.1320 cl        1 2YA     -0.077400
      2 C19         2.6240    1.1800    0.8820 ca        1 2YA      0.015400
      3 C18         3.4950    1.1200    1.9740 ca        1 2YA     -0.110500
      4 C17         4.8430    0.8450    1.7760 ca        1 2YA     -0.120500
      5 C16         5.3320    0.6150    0.4720 ca        1 2YA      0.013800
      6 C21         4.4490    0.6830   -0.6240 ca        1 2YA     -0.120500
      7 C20         3.1020    0.9660   -0.4140 ca        1 2YA     -0.110500
      8 N3          6.7080    0.3200    0.2730 na        1 2YA      0.116300
      9 C15         7.5560   -0.2880    1.2140 cc        1 2YA     -0.194600
     10 C14         8.8010   -0.3540    0.5610 cd        1 2YA      0.219600
     11 N1          8.6150    0.2230   -0.7230 nd        1 2YA     -0.328000
     12 N2          7.4150    0.5970   -0.8610 nc        1 2YA     -0.152800
     13 C11        10.0830   -0.9060    1.0650 c3        1 2YA      0.137800
     14 C12        10.6850   -1.9200    0.1070 c3        1 2YA     -0.091100
     15 O1         11.0810    0.1300    1.1880 os        1 2YA     -0.321900
     16 C1         10.9120    0.9810    2.2660 ca        1 2YA      0.086100
     17 C6         10.8460    2.3860    1.9900 ca        1 2YA     -0.014000
     18 C7         10.8490    2.8980    0.6690 ca        1 2YA     -0.105000
     19 C8         10.7920    4.2540    0.4430 ca        1 2YA     -0.111000
     20 C9         10.7320    5.1560    1.5270 ca        1 2YA     -0.127000
     21 C10        10.7280    4.6960    2.8230 ca        1 2YA     -0.091000
     22 C5         10.7850    3.2960    3.0800 ca        1 2YA     -0.099300
     23 N4         10.7800    2.8200    4.4290 na        1 2YA      0.248600
     24 O2         10.7090    3.6140    5.3590 o         1 2YA     -0.292000
     25 C3         10.8470    1.4700    4.6320 ca        1 2YA     -0.225300
     26 C2         10.9210    0.5400    3.5700 ca        1 2YA     -0.144000
     27 H1          3.1200    1.2970    2.9950 ha        1 2YA      0.156500
     28 H2          5.5180    0.8190    2.6450 ha        1 2YA      0.156500
     29 H3          4.8090    0.5200   -1.6530 ha        1 2YA      0.156500
     30 H4          2.4180    1.0190   -1.2750 ha        1 2YA      0.156500
     31 H5          7.2250   -0.6140    2.1970 h4        1 2YA      0.196000
     32 H6          9.9020   -1.3720    2.0750 h1        1 2YA      0.047700
     33 H7         11.6070   -2.3610    0.5560 hc        1 2YA      0.056700
     34 H8          9.9420   -2.7280   -0.0890 hc        1 2YA      0.056700
     35 H9         10.9580   -1.4290   -0.8580 hc        1 2YA      0.056700
     36 H10        10.8960    2.1770   -0.1640 ha        1 2YA      0.168000
     37 H11        10.7920    4.6470   -0.5860 ha        1 2YA      0.143000
     38 H12        10.6890    6.2380    1.3250 ha        1 2YA      0.142000
     39 H13        10.6830    5.3920    3.6780 ha        1 2YA      0.170000
     40 H15        10.8510    1.1420    5.6850 h4        1 2YA      0.185000
     41 H16        10.9920   -0.5270    3.8240 ha        1 2YA      0.155000
@<TRIPOS>BOND
     1    1    2 1   
     2    2    3 ar  
     3    2    7 ar  
     4    3    4 ar  
     5    3   27 1   
     6    4    5 ar  
     7    4   28 1   
     8    5    6 ar  
     9    5    8 1   
    10    6    7 ar  
    11    6   29 1   
    12    7   30 1   
    13    8    9 1   
    14    8   12 1   
    15    9   10 2   
    16    9   31 1   
    17   10   11 1   
    18   10   13 1   
    19   11   12 2   
    20   13   14 1   
    21   13   15 1   
    22   13   32 1   
    23   14   33 1   
    24   14   34 1   
    25   14   35 1   
    26   15   16 1   
    27   16   17 ar  
    28   16   26 ar  
    29   17   18 ar  
    30   17   22 ar  
    31   18   19 ar  
    32   18   36 1   
    33   19   20 ar  
    34   19   37 1   
    35   20   21 ar  
    36   20   38 1   
    37   21   22 ar  
    38   21   39 1   
    39   22   23 1   
    40   23   24 1   
    41   23   25 2   
    42   25   26 ar  
    43   25   40 1   
    44   26   41 1   
@<TRIPOS>SUBSTRUCTURE
     1 2YA         1 TEMP              0 ****  ****    0 ROOT
