@<TRIPOS>MOLECULE
molecule
   41    44     1     0     0
SMALL
bcc


@<TRIPOS>ATOM
      1 Cl1          0.0000     0.0000     0.0000 cl         1 2YA      -0.090400
      2 C19          1.7360     0.0000     0.0000 ca         1 2YA       0.031400
      3 C18          2.4260     0.0000     1.1990 ca         1 2YA      -0.105500
      4 C17          3.8080     0.0000     1.2020 ca         1 2YA      -0.115000
      5 C16          4.5030     0.0000     0.0010 ca         1 2YA       0.000800
      6 C21          3.8080    -0.0000    -1.2010 ca         1 2YA      -0.115000
      7 C20          2.4270    -0.0060    -1.1990 ca         1 2YA      -0.105500
      8 N3           5.9060     0.0060     0.0010 na         1 2YA       0.212300
      9 C15          6.7040     0.0080     1.1030 cc         1 2YA      -0.265600
     10 C14          7.9770     0.0130     0.6420 cc         1 2YA       0.274600
     11 N1           7.8990     0.0150    -0.6930 nc         1 2YA      -0.332000
     12 N2           6.6610     0.0060    -1.0410 nd         1 2YA      -0.191800
     13 C11          9.2360     0.0220     1.4720 c3         1 2YA       0.134800
     14 C12         10.1260    -1.1520     1.0600 c3         1 2YA      -0.118100
     15 O1           9.9370     1.2490     1.2610 os         1 2YA      -0.300900
     16 C1          10.7590     1.6680     2.2560 ca         1 2YA       0.178100
     17 C6          11.4000     2.9250     2.1890 ca         1 2YA      -0.070000
     18 C7          11.2140     3.7830     1.0960 ca         1 2YA      -0.094000
     19 C8          11.8500     4.9870     1.0680 ca         1 2YA      -0.124000
     20 C9          12.6840     5.3780     2.1120 ca         1 2YA      -0.111000
     21 C10         12.8870     4.5700     3.1880 ca         1 2YA      -0.091000
     22 C5          12.2470     3.3200     3.2530 ca         1 2YA       0.003700
     23 N4          12.4280     2.5050     4.2990 na         1 2YA       0.103600
     24 O2          13.2790     2.9160     5.3540 o          1 2YA      -0.392000
     25 C3          11.8360     1.3370     4.3720 ca         1 2YA      -0.051300
     26 C2          10.9870     0.8820     3.3680 ca         1 2YA      -0.275000
     27 H1           1.8830     0.0000     2.1370 ha         1 2YA       0.157000
     28 H2           4.3480     0.0010     2.1410 ha         1 2YA       0.157500
     29 H3           4.3490    -0.0030    -2.1400 ha         1 2YA       0.157500
     30 H4           1.8840    -0.0070    -2.1360 ha         1 2YA       0.157000
     31 H5           6.3850     0.0050     2.1380 h4         1 2YA       0.187000
     32 H6           8.9780    -0.0700     2.5200 h1         1 2YA       0.054700
     33 H7          10.2890    -1.7990     1.9130 hc         1 2YA       0.057367
     34 H8          11.0780    -0.7770     0.7050 hc         1 2YA       0.057367
     35 H9           9.6420    -1.7130     0.2690 hc         1 2YA       0.057367
     36 H10         10.5680     3.4890     0.2770 ha         1 2YA       0.158000
     37 H11         11.7040     5.6490     0.2230 ha         1 2YA       0.138000
     38 H12         13.1790     6.3410     2.0680 ha         1 2YA       0.141000
     39 H13         13.5390     4.8890     3.9930 ha         1 2YA       0.183000
     40 H15         12.0080     0.7120     5.2400 h4         1 2YA       0.188000
     41 H16         10.5120    -0.0880     3.4560 ha         1 2YA       0.157000
@<TRIPOS>BOND
     1    14    13 1
     2    13    15 1
     3    13    10 1
     4    15    16 1
     5    26    16 ar
     6    26    25 ar
     7    16    17 ar
     8    25    23 1
     9    10    11 1
    10    10     9 2
    11    11    12 2
    12    17    18 ar
    13    17    22 ar
    14    23    22 2
    15    23    24 1
    16    18    19 ar
    17    22    21 ar
    18     9     8 1
    19    12     8 1
    20    19    20 ar
    21    21    20 ar
    22     8     5 1
    23     5     6 ar
    24     5     4 ar
    25     6     7 ar
    26     4     3 ar
    27     7     2 ar
    28     3     2 ar
    29     2     1 1
    30     3    27 1
    31     4    28 1
    32     6    29 1
    33     7    30 1
    34     9    31 1
    35    13    32 1
    36    14    33 1
    37    14    34 1
    38    14    35 1
    39    18    36 1
    40    19    37 1
    41    20    38 1
    42    21    39 1
    43    25    40 1
    44    26    41 1
@<TRIPOS>SUBSTRUCTURE
     1 2YA         1 TEMP              0 ****  ****    0 ROOT
