@<TRIPOS>MOLECULE
2YB
   68    71     1     0     0
SMALL
bcc


@<TRIPOS>ATOM
      1 C4         -0.0570    0.5660    0.4860 ca        1 2YB      0.127100
      2 C6         -2.1340   -0.1570   -0.4200 c3        1 2YB      0.136400
      3 C7         -2.7890   -0.2010   -1.7910 c3        1 2YB     -0.063400
      4 C8         -3.9970   -1.1100   -1.7640 c3        1 2YB     -0.321600
      5 C10        -5.8180   -2.4630   -2.9860 c3        1 2YB     -0.370300
      6 C13         1.2540    0.9730    0.1940 ca        1 2YB     -0.186500
      7 C15         3.5990    1.4040    0.8890 c3        1 2YB     -0.060300
      8 C17         2.8620    0.6260    3.5900 cp        1 2YB     -0.038000
      9 C20         4.7560    0.6370    5.6530 ca        1 2YB     -0.126000
     10 C21         4.3300   -0.5770    5.1030 ca        1 2YB     -0.084300
     11 C22         4.9090   -1.8550    5.6170 c3        1 2YB      0.174700
     12 C24         4.2350   -4.1030    6.0350 ca        1 2YB      0.133100
     13 C26         5.7290   -5.7200    7.0530 ca        1 2YB     -0.058000
     14 C28         4.6300   -8.0460    7.5820 c3        1 2YB     -0.012400
     15 C1          0.1510   -0.1910    4.1730 c3        1 2YB     -0.060300
     16 C2          0.5410    0.2100    2.8000 ca        1 2YB     -0.022800
     17 C3         -0.4180    0.1860    1.7810 ca        1 2YB     -0.186500
     18 O5         -0.9350    0.6080   -0.5850 os        1 2YB     -0.334900
     19 S9         -4.8030   -1.1410   -3.2700 s6        1 2YB      1.342000
     20 O11        -5.5780    0.0170   -3.4140 o         1 2YB     -0.651800
     21 O12        -3.9100   -1.4530   -4.3000 o         1 2YB     -0.651800
     22 C14         2.2100    0.9960    1.2100 ca        1 2YB     -0.022800
     23 C16         1.8580    0.6140    2.5190 cp        1 2YB     -0.073000
     24 C18         3.2970    1.8370    4.1430 ca        1 2YB     -0.123000
     25 C19         4.2410    1.8380    5.1690 ca        1 2YB     -0.138000
     26 O23         3.9120   -2.8730    5.4780 os        1 2YB     -0.338900
     27 C25         5.4980   -4.4370    6.5240 ca        1 2YB     -0.252000
     28 C27         4.6990   -6.6340    7.0850 ca        1 2YB     -0.159300
     29 C30         5.6070   -8.9790    6.9030 c3        1 2YB     -0.195400
     30 C31         5.4500  -10.4190    7.4320 c         1 2YB      0.907600
     31 O32         6.3480  -10.8680    8.1970 o         1 2YB     -0.843800
     32 O33         4.4320  -11.0760    7.0650 o         1 2YB     -0.843800
     33 C34         3.1600   -8.4330    7.2940 c3        1 2YB      0.119400
     34 O35         2.4940   -7.2850    6.6700 os        1 2YB     -0.341900
     35 C36         3.4200   -6.2690    6.5750 ca        1 2YB      0.153100
     36 C37         3.1550   -5.0150    6.0490 ca        1 2YB     -0.199000
     37 C38         3.3870   -0.5800    4.0720 ca        1 2YB     -0.091000
     38 H1         -2.7990    0.3530    0.3250 h1        1 2YB      0.041700
     39 H2         -1.8850   -1.1890   -0.0580 h1        1 2YB      0.041700
     40 H3         -2.0460   -0.5680   -2.5490 hc        1 2YB      0.076200
     41 H4         -3.0930    0.8390   -2.0870 hc        1 2YB      0.076200
     42 H5         -4.6860   -0.7600   -0.9490 h1        1 2YB      0.111700
     43 H6         -3.6590   -2.1340   -1.4530 h1        1 2YB      0.111700
     44 H7         -5.2750   -3.4400   -3.0120 h1        1 2YB      0.117033
     45 H8         -6.6180   -2.5330   -3.7670 h1        1 2YB      0.117033
     46 H9         -6.3510   -2.4190   -2.0060 h1        1 2YB      0.117033
     47 H10         1.5140    1.2670   -0.8330 ha        1 2YB      0.141000
     48 H11         4.2750    0.5120    0.9290 hc        1 2YB      0.050367
     49 H12         3.6650    1.8520   -0.1320 hc        1 2YB      0.050367
     50 H13         3.9690    2.1530    1.6330 hc        1 2YB      0.050367
     51 H14         5.4930    0.6430    6.4690 ha        1 2YB      0.131000
     52 H15         5.8120   -2.1380    5.0090 h1        1 2YB      0.047700
     53 H16         5.2020   -1.7560    6.6970 h1        1 2YB      0.047700
     54 H17         6.7270   -5.9860    7.4310 ha        1 2YB      0.139000
     55 H18         4.8160   -8.0750    8.6900 hc        1 2YB      0.068700
     56 H19         0.8180   -1.0140    4.5390 hc        1 2YB      0.050367
     57 H20        -0.9060   -0.5480    4.2100 hc        1 2YB      0.050367
     58 H21         0.2580    0.6770    4.8710 hc        1 2YB      0.050367
     59 H22        -1.4440   -0.1310    2.0120 ha        1 2YB      0.141000
     60 H23         2.8880    2.7870    3.7690 ha        1 2YB      0.132000
     61 H24         4.5770    2.7910    5.6010 ha        1 2YB      0.127000
     62 H25         6.3270   -3.7190    6.4980 ha        1 2YB      0.123000
     63 H26         6.6500   -8.6240    7.0960 hc        1 2YB      0.032700
     64 H27         5.4310   -8.9830    5.7980 hc        1 2YB      0.032700
     65 H29         2.5880   -8.6410    8.2300 h1        1 2YB      0.084700
     66 H30         3.0830   -9.2900    6.5770 h1        1 2YB      0.084700
     67 H31         2.1720   -4.7350    5.6560 ha        1 2YB      0.151000
     68 H32         3.0500   -1.5410    3.6500 ha        1 2YB      0.159000
@<TRIPOS>BOND
     1    1    6 ar  
     2    1   17 ar  
     3    1   18 1   
     4    2    3 1   
     5    2   18 1   
     6    2   38 1   
     7    2   39 1   
     8    3    4 1   
     9    3   40 1   
    10    3   41 1   
    11    4   19 1   
    12    4   42 1   
    13    4   43 1   
    14    5   19 1   
    15    5   44 1   
    16    5   45 1   
    17    5   46 1   
    18    6   22 ar  
    19    6   47 1   
    20    7   22 1   
    21    7   48 1   
    22    7   49 1   
    23    7   50 1   
    24    8   23 1   
    25    8   24 ar  
    26    8   37 ar  
    27    9   10 ar  
    28    9   25 ar  
    29    9   51 1   
    30   10   11 1   
    31   10   37 ar  
    32   11   26 1   
    33   11   52 1   
    34   11   53 1   
    35   12   26 1   
    36   12   27 ar  
    37   12   36 ar  
    38   13   27 ar  
    39   13   28 ar  
    40   13   54 1   
    41   14   28 1   
    42   14   29 1   
    43   14   33 1   
    44   14   55 1   
    45   15   16 1   
    46   15   56 1   
    47   15   57 1   
    48   15   58 1   
    49   16   17 ar  
    50   16   23 ar  
    51   17   59 1   
    52   19   20 2   
    53   19   21 2   
    54   22   23 ar  
    55   24   25 ar  
    56   24   60 1   
    57   25   61 1   
    58   27   62 1   
    59   28   35 ar  
    60   29   30 1   
    61   29   63 1   
    62   29   64 1   
    63   30   31 1   
    64   30   32 1   
    65   33   34 1   
    66   33   65 1   
    67   33   66 1   
    68   34   35 1   
    69   35   36 ar  
    70   36   67 1   
    71   37   68 1   
@<TRIPOS>SUBSTRUCTURE
     1 2YB         1 TEMP              0 ****  ****    0 ROOT
