@<TRIPOS>MOLECULE
molecule
   68    71     1     0     0
SMALL
bcc


@<TRIPOS>ATOM
      1 C4           0.0000     0.0000     0.0000 ca         1 2YB       0.147100
      2 C6          -2.1050    -0.0000    -1.1040 c3         1 2YB       0.149400
      3 C7          -2.6880     0.0010    -2.5190 c3         1 2YB      -0.060400
      4 C8          -4.2170     0.0000    -2.4410 c3         1 2YB      -0.208600
      5 C10         -6.6910     0.0010    -3.7880 c3         1 2YB      -0.229300
      6 C13          1.3880     0.0000     0.0000 ca         1 2YB      -0.197500
      7 C15          3.5860     0.0010     1.1930 c3         1 2YB      -0.049300
      8 C17          2.1220    -0.0010     3.6860 cp         1 2YB      -0.040000
      9 C20          3.4940    -0.0060     6.0910 ca         1 2YB      -0.104000
     10 C21          3.5950    -1.0910     5.2380 ca         1 2YB      -0.087300
     11 C22          4.4550    -2.2680     5.6160 c3         1 2YB       0.190700
     12 C24          4.3000    -4.3460     6.7630 ca         1 2YB       0.147100
     13 C26          6.2830    -5.6820     6.9090 ca         1 2YB      -0.047000
     14 C28          5.9950    -7.9730     8.2010 c3         1 2YB      -0.029400
     15 C1          -0.7700     0.0100     3.7000 c3         1 2YB      -0.049300
     16 C2          -0.0120     0.0040     2.3970 ca         1 2YB      -0.025300
     17 C3          -0.6970     0.0050     1.2000 ca         1 2YB      -0.197500
     18 O5          -0.6780    -0.0000    -1.1780 os         1 2YB      -0.330900
     19 S9          -4.9070     0.0010    -4.1190 s6         1 2YB       1.104000
     20 O11         -4.5640     1.2270    -4.7490 o          1 2YB      -0.609800
     21 O12         -4.5630    -1.2250    -4.7500 o          1 2YB      -0.609800
     22 C14          2.0790     0.0000     1.1940 ca         1 2YB      -0.025300
     23 C16          1.3810    -0.0010     2.4010 cp         1 2YB      -0.078000
     24 C18          2.0290     1.0910     4.5470 ca         1 2YB      -0.116000
     25 C19          2.7150     1.0830     5.7440 ca         1 2YB      -0.138000
     26 O23          3.6710    -3.2160     6.3440 os         1 2YB      -0.332900
     27 C25          5.6450    -4.5330     6.4790 ca         1 2YB      -0.267000
     28 C27          5.5840    -6.6340     7.6180 ca         1 2YB      -0.184300
     29 C30          6.8030    -8.7870     7.1890 c3         1 2YB      -0.176400
     30 C31          7.1710   -10.1170     7.7930 c          1 2YB       0.887600
     31 O32          7.8860   -11.0030     7.0810 o          1 2YB      -0.852300
     32 O33          6.8250   -10.3870     8.9190 o          1 2YB      -0.852300
     33 C34          4.6250    -8.6360     8.4770 c3         1 2YB       0.143400
     34 O35          3.7500    -7.5060     8.6340 os         1 2YB      -0.337900
     35 C36          4.2390    -6.4570     7.9170 ca         1 2YB       0.161100
     36 C37          3.5990    -5.3020     7.4780 ca         1 2YB      -0.195000
     37 C38          2.9080    -1.0960     4.0410 ca         1 2YB      -0.092000
     38 H1          -2.4400    -0.8850    -0.5760 h1         1 2YB       0.037700
     39 H2          -2.4400     0.8840    -0.5760 h1         1 2YB       0.037700
     40 H3          -2.3530     0.8850    -3.0470 hc         1 2YB       0.073200
     41 H4          -2.3530    -0.8840    -3.0480 hc         1 2YB       0.073200
     42 H5          -4.5510     0.8850    -1.9130 h1         1 2YB       0.095200
     43 H6          -4.5510    -0.8840    -1.9130 h1         1 2YB       0.095200
     44 H7          -7.2320    -0.0090    -4.7270 h1         1 2YB       0.096700
     45 H8          -6.9510    -0.8790    -3.2120 h1         1 2YB       0.096700
     46 H9          -6.9550     0.8900    -3.2290 h1         1 2YB       0.096700
     47 H10          1.9290    -0.0040    -0.9380 ha         1 2YB       0.137500
     48 H11          3.9480    -0.9990     1.4000 hc         1 2YB       0.047867
     49 H12          3.9460     0.3220     0.2230 hc         1 2YB       0.047867
     50 H13          3.9470     0.6810     1.9560 hc         1 2YB       0.047867
     51 H14          4.0310    -0.0080     7.0320 ha         1 2YB       0.136000
     52 H15          5.2780    -1.9300     6.2340 h1         1 2YB       0.041200
     53 H16          4.8440    -2.7340     4.7190 h1         1 2YB       0.041200
     54 H17          7.3330    -5.8330     6.6900 ha         1 2YB       0.134000
     55 H18          6.5460    -7.8360     9.1240 hc         1 2YB       0.080700
     56 H19         -0.7430     1.0040     4.1290 hc         1 2YB       0.047867
     57 H20         -0.3130    -0.6930     4.3870 hc         1 2YB       0.047867
     58 H21         -1.7990    -0.2780     3.5200 hc         1 2YB       0.047867
     59 H22         -1.7800     0.0050     1.1970 ha         1 2YB       0.137500
     60 H23          1.4190     1.9450     4.2770 ha         1 2YB       0.130000
     61 H24          2.6420     1.9300     6.4150 ha         1 2YB       0.127000
     62 H25          6.2150    -3.7400     6.0100 ha         1 2YB       0.121000
     63 H26          6.2080    -8.9470     6.2980 hc         1 2YB       0.038200
     64 H27          7.7050    -8.2460     6.9290 hc         1 2YB       0.038200
     65 H29          4.3190    -9.2250     7.6210 h1         1 2YB       0.079200
     66 H30          4.6660    -9.2040     9.3990 h1         1 2YB       0.079200
     67 H31          2.5500    -5.1490     7.7000 ha         1 2YB       0.139000
     68 H32          2.9870    -1.9450     3.3740 ha         1 2YB       0.143000
@<TRIPOS>BOND
     1    25     9 ar
     2    25    24 ar
     3     9    10 ar
     4    24     8 ar
     5    10    11 1
     6    10    37 ar
     7     8    37 ar
     8     8    23 1
     9    15    16 1
    10    11    26 1
    11    23    16 ar
    12    23    22 ar
    13    16    17 ar
    14    26    12 1
    15     7    22 1
    16    22     6 ar
    17    17     1 ar
    18    12    27 ar
    19    12    36 ar
    20    27    13 ar
    21    32    30 1
    22    36    35 ar
    23     6     1 ar
    24     1    18 1
    25    29    30 1
    26    29    14 1
    27    13    28 ar
    28    35    28 ar
    29    35    34 1
    30    30    31 1
    31    28    14 1
    32    18     2 1
    33    34    33 1
    34     2     3 1
    35    14    33 1
    36     3     4 1
    37     5    19 1
    38     4    19 1
    39    20    19 2
    40    19    21 2
    41     2    38 1
    42     2    39 1
    43     3    40 1
    44     3    41 1
    45     4    42 1
    46     4    43 1
    47     5    44 1
    48     5    45 1
    49     5    46 1
    50     6    47 1
    51     7    48 1
    52     7    49 1
    53     7    50 1
    54     9    51 1
    55    11    52 1
    56    11    53 1
    57    13    54 1
    58    14    55 1
    59    15    56 1
    60    15    57 1
    61    15    58 1
    62    17    59 1
    63    24    60 1
    64    25    61 1
    65    27    62 1
    66    29    63 1
    67    29    64 1
    68    33    65 1
    69    33    66 1
    70    36    67 1
    71    37    68 1
@<TRIPOS>SUBSTRUCTURE
     1 2YB         1 TEMP              0 ****  ****    0 ROOT
