@<TRIPOS>MOLECULE
2YK
   42    44     1     0     0
SMALL
bcc


@<TRIPOS>ATOM
      1 N3         -0.5950    0.1660    0.4820 n2        1 2YK     -0.091000
      2 C4         -2.1880   -0.7250    3.7110 c2        1 2YK     -0.075000
      3 N2         -3.3590   -0.1590    3.8750 n2        1 2YK     -0.067000
      4 C7          2.3050   -1.2060    3.6460 c2        1 2YK     -0.164000
      5 C6          1.4130    0.2250    1.3210 c2        1 2YK     -0.086000
      6 C9          2.7170    0.3920    1.9500 c2        1 2YK     -0.057000
      7 C13         0.2290   -1.2460    9.2160 c1        1 2YK     -0.052000
      8 C8          3.0940   -0.8520    2.4360 c2        1 2YK     -0.189000
      9 N5          0.5520   -0.4800    2.3120 na        1 2YK     -0.160000
     10 C16        -0.2130   -0.5300   10.2000 c2        1 2YK     -0.170000
     11 C17         1.9690   -5.7850    3.1780 c3        1 2YK     -0.074000
     12 C12         1.3260   -4.8040    5.2390 c3        1 2YK      0.005000
     13 C11         1.3450   -3.6550    6.0980 c1        1 2YK     -0.180000
     14 C14         0.6490   -2.0020    8.2310 c2        1 2YK     -0.155000
     15 C15         1.5320   -1.5600    7.1640 c2        1 2YK      0.334000
     16 O1          1.9660   -0.2910    7.2830 oh        1 2YK     -0.224000
     17 C10         1.8900   -2.4040    6.0950 c2        1 2YK     -0.408000
     18 S           3.0750   -1.8120    4.9920 ss        1 2YK      0.357000
     19 N4          0.6450    0.5780    0.2750 n2        1 2YK     -0.012000
     20 N6          0.9850   -1.0830    3.4460 n2        1 2YK     -0.068000
     21 C5         -0.7100   -0.4870    1.6830 c2        1 2YK      0.014000
     22 C3         -1.9300   -1.1210    2.2460 c3        1 2YK      0.036000
     23 C2         -3.2140   -0.6350    1.6360 c2        1 2YK     -0.466000
     24 N1         -3.9980   -0.0770    2.6210 n3        1 2YK      0.168000
     25 C1         -5.2090    0.4450    2.4780 c2        1 2YK     -0.328000
     26 H1         -1.4870   -0.9070    4.5320 h4        1 2YK      0.203000
     27 H2          2.9410    1.3550    2.4240 ha        1 2YK      0.156000
     28 H3          1.8060   -5.6580    5.8020 h1        1 2YK      0.112000
     29 H4          3.2510   -1.7060    1.7540 ha        1 2YK      0.163000
     30 H5          2.5610   -0.0690    6.5330 ho        1 2YK      0.262000
     31 H6          0.3250   -0.4520   11.1580 ha        1 2YK      0.158500
     32 H7         -1.1530    0.0420   10.1360 ha        1 2YK      0.158500
     33 H8          0.9160   -6.0720    2.9340 h1        1 2YK      0.068667
     34 H9          2.4830   -6.6360    3.6900 h1        1 2YK      0.068667
     35 H10         2.5210   -5.4990    2.2480 h1        1 2YK      0.068667
     36 H11         0.2450   -5.0690    5.0410 h1        1 2YK      0.112000
     37 H12         0.3430   -3.0690    8.1410 ha        1 2YK      0.215000
     38 H13        -1.8280   -2.2390    2.1630 hc        1 2YK      0.147000
     39 H14        -3.4630   -0.6130    0.5820 h4        1 2YK      0.203000
     40 H15        -5.6450    0.4730    1.4730 h4        1 2YK      0.157500
     41 H16        -5.7590    0.8400    3.3380 h4        1 2YK      0.157500
     42 O2          1.9980   -4.6240    3.9860 os        1 2YK     -0.301000
@<TRIPOS>BOND
     1    1   19 1   
     2    1   21 1   
     3    2    3 1   
     4    2   22 1   
     5    2   26 1   
     6    3   24 1   
     7    4    8 1   
     8    4   18 1   
     9    4   20 1   
    10    5    6 1   
    11    5    9 1   
    12    5   19 1   
    13    6    8 1   
    14    6   27 1   
    15    7   10 1   
    16    7   14 1   
    17    8   29 1   
    18    9   20 1   
    19    9   21 1   
    20   10   31 1   
    21   10   32 1   
    22   11   33 1   
    23   11   34 1   
    24   11   35 1   
    25   11   42 1   
    26   12   13 1   
    27   12   28 1   
    28   12   36 1   
    29   12   42 1   
    30   13   17 1   
    31   14   15 1   
    32   14   37 1   
    33   15   16 1   
    34   15   17 1   
    35   16   30 1   
    36   17   18 1   
    37   21   22 1   
    38   22   23 1   
    39   22   38 1   
    40   23   24 1   
    41   23   39 1   
    42   24   25 1   
    43   25   40 1   
    44   25   41 1   
@<TRIPOS>SUBSTRUCTURE
     1 2YK         1 TEMP              0 ****  ****    0 ROOT
