@<TRIPOS>MOLECULE
molecule
   42    45     1     0     0
SMALL
bcc


@<TRIPOS>ATOM
      1 N3           0.0000     0.0000     0.0000 nc         1 2YK      -0.365700
      2 C4          -2.3680     0.3030     2.9390 cd         1 2YK       0.364200
      3 N2          -3.6700     0.1930     2.9100 nc         1 2YK      -0.512800
      4 C7           1.9870    -0.0010     3.9880 cc         1 2YK       0.475600
      5 C6           1.7320     0.0000     1.2470 cd         1 2YK      -0.133300
      6 C9           3.0170    -0.0000     1.8210 cd         1 2YK      -0.020000
      7 C13          1.1590    -4.2820     6.8650 ca         1 2YK      -0.183000
      8 C8           3.1380    -0.0000     3.1740 cc         1 2YK      -0.243300
      9 N5           0.6290    -0.0010     2.0670 na         1 2YK       0.077300
     10 C16          1.7930    -1.5600     9.8450 c3         1 2YK       0.130700
     11 C17          0.7160    -6.1720     4.9840 c3         1 2YK       0.128700
     12 C12          1.2450    -3.9180     5.5290 ca         1 2YK       0.124100
     13 C11          1.5510    -2.6110     5.1840 ca         1 2YK      -0.129000
     14 C14          1.3780    -3.3420     7.8560 ca         1 2YK      -0.168000
     15 C15          1.6890    -2.0370     7.5170 ca         1 2YK       0.124100
     16 O1           1.9050    -1.1130     8.4930 os         1 2YK      -0.325900
     17 C10          1.7710    -1.6660     6.1750 ca         1 2YK       0.011900
     18 S            2.1590    -0.0040     5.7410 ss         1 2YK      -0.182200
     19 N4           1.2870     0.0000     0.0000 nc         1 2YK      -0.063000
     20 N6           0.7860    -0.0030     3.4540 nd         1 2YK      -0.426800
     21 C5          -0.4540    -0.0010     1.2390 cd         1 2YK       0.457400
     22 C3          -1.8750    -0.0020     1.6530 cd         1 2YK      -0.334200
     23 C2          -2.9470    -0.2970     0.8600 cc         1 2YK      -0.061300
     24 N1          -4.0570    -0.1880     1.6190 na         1 2YK       0.067400
     25 C1          -5.4320    -0.4180     1.1670 c3         1 2YK       0.063600
     26 H1          -1.7720     0.5830     3.7990 h4         1 2YK       0.067100
     27 H2           3.8990     0.0010     1.1910 ha         1 2YK       0.169000
     28 H3           0.9160    -5.3030     7.1320 ha         1 2YK       0.139000
     29 H4           4.1210     0.0070     3.6290 ha         1 2YK       0.165000
     30 H5           2.5040    -2.3580    10.0220 h1         1 2YK       0.043033
     31 H6           2.0020    -0.7360    10.5170 h1         1 2YK       0.043033
     32 H7           0.7890    -1.9250    10.0240 h1         1 2YK       0.043033
     33 H8           0.5740    -6.8060     4.1180 h1         1 2YK       0.042033
     34 H9           1.5920    -6.5000     5.5320 h1         1 2YK       0.042033
     35 H10         -0.1550    -6.2350     5.6250 h1         1 2YK       0.042033
     36 H11          1.6160    -2.3270     4.1400 ha         1 2YK       0.152000
     37 H12          1.3110    -3.6290     8.8980 ha         1 2YK       0.141000
     38 H13         -2.9120    -0.5740    -0.1870 h4         1 2YK       0.189000
     39 H14         -5.6670     0.2680     0.3630 h1         1 2YK       0.057700
     40 H15         -5.5300    -1.4370     0.8130 h1         1 2YK       0.057700
     41 H16         -6.1150    -0.2560     1.9920 h1         1 2YK       0.057700
     42 O2           1.0280    -4.8440     4.5570 os         1 2YK      -0.325900
@<TRIPOS>BOND
     1    11    42 1   
     2    18    17 1   
     3    18     4 1   
     4    13    17 ar  
     5    13    12 ar  
     6     8     4 1   
     7     8     6 2   
     8    42    12 1   
     9    17    15 ar  
    10     4    20 2   
    11    12     7 ar  
    12     6     5 1   
    13    20     9 1   
    14    15    16 1   
    15    15    14 ar  
    16     7    14 ar  
    17     5     9 1   
    18     5    19 2   
    19     9    21 1   
    20    16    10 1   
    21    19     1 1   
    22    21     1 2   
    23    21    22 1   
    24    23    22 2   
    25    23    24 1   
    26    22     2 1   
    27    24    25 1   
    28    24     3 1   
    29     2     3 2   
    30     2    26 1   
    31     6    27 1   
    32     7    28 1   
    33     8    29 1   
    34    10    30 1   
    35    10    31 1   
    36    10    32 1   
    37    11    33 1   
    38    11    34 1   
    39    11    35 1   
    40    13    36 1   
    41    14    37 1   
    42    23    38 1   
    43    25    39 1   
    44    25    40 1   
    45    25    41 1   
@<TRIPOS>SUBSTRUCTURE
     1 2YK         1 TEMP              0 ****  ****    0 ROOT
