@<TRIPOS>MOLECULE
molecule
   23    24     1     0     0
SMALL
bcc


@<TRIPOS>ATOM
      1 N1           0.0000     0.0000     0.0000 ns         1 2YL      -0.472400
      2 C2           1.3490     0.0000     0.0000 c          1 2YL       0.818900
      3 N3           2.0110     0.0000     1.1600 nc         1 2YL      -0.629100
      4 C4           1.3470     0.0010     2.3090 cd         1 2YL       0.799900
      5 N5           0.0120     0.0020     2.3240 nd         1 2YL      -0.725000
      6 C6          -0.6690     0.0070     1.1900 cc         1 2YL       0.531800
      7 N7          -2.0350     0.0080     1.2080 nz         1 2YL      -0.749600
      8 O8           1.9620    -0.0020    -1.0540 o          1 2YL      -0.517500
      9 C9           3.4910     0.0030     5.9790 ca         1 2YL      -0.064000
     10 C10          4.1790     0.0010     4.7790 ca         1 2YL      -0.135500
     11 C11          3.4880     0.0010     3.5840 ca         1 2YL      -0.061000
     12 C12          2.0940     0.0010     3.5880 ca         1 2YL      -0.177900
     13 C13          1.4060     0.0030     4.8010 ca         1 2YL      -0.061000
     14 C14          2.1080     0.0040     5.9890 ca         1 2YL      -0.135500
     15 H2          -2.3750    -0.8600     0.8430 hn         1 2YL       0.486467
     16 H3          -2.3760     0.7630     0.6460 hn         1 2YL       0.486467
     17 H6           4.0290    -0.0010     2.6450 ha         1 2YL       0.152000
     18 H7           0.3230     0.0040     4.8110 ha         1 2YL       0.152000
     19 H8           1.5740     0.0060     6.9320 ha         1 2YL       0.154500
     20 H9          -0.5050     0.0020    -0.8640 hn         1 2YL       0.352500
     21 H4           4.0380     0.0030     6.9140 ha         1 2YL       0.153000
     22 H73         -2.3560     0.1220     2.1500 hn         1 2YL       0.486467
     23 H5           5.2630     0.0000     4.7770 ha         1 2YL       0.154500
@<TRIPOS>BOND
     1     9    10 ar
     2     9    14 ar
     3    10    11 ar
     4    14    13 ar
     5    11    12 ar
     6    13    12 ar
     7    12     4 1
     8     4     3 2
     9     4     5 1
    10     3     2 1
    11     5     6 2
    12     2     8 2
    13     2     1 1
    14     6     1 1
    15     6     7 1
    16     7    15 1
    17     7    16 1
    18     9    21 1
    19    10    23 1
    20    11    17 1
    21    13    18 1
    22    14    19 1
    23     1    20 1
    24    22     7 1
@<TRIPOS>SUBSTRUCTURE
     1 2YL         1 TEMP              0 ****  ****    0 ROOT
