@<TRIPOS>MOLECULE
2YM
   46    49     1     0     0
SMALL
bcc


@<TRIPOS>ATOM
      1 O            0.0000     0.0000     0.0000 o          1 2YM      -0.494100
      2 C1           1.2200     0.0000     0.0000 c          1 2YM       0.711100
      3 N1           1.9060     0.0000     1.1520 nc         1 2YM      -0.538100
      4 C2           1.9750    -0.0050    -1.2670 ca         1 2YM      -0.208600
      5 C15          3.3830    -0.0060    -1.1990 ca         1 2YM      -0.069400
      6 N6           3.9830    -0.0000     0.0510 na         1 2YM      -0.149600
      7 C            3.2210    -0.0010     1.1770 cd         1 2YM       0.225100
      8 N            3.8520     0.0050     2.3890 nz         1 2YM       0.185400
      9 C14          4.1330    -0.0120    -2.3620 ca         1 2YM      -0.084000
     10 C13          3.4940    -0.0180    -3.5910 ca         1 2YM      -0.236200
     11 C4           2.0870    -0.0170    -3.6650 ca         1 2YM       0.120400
     12 C3           1.3300    -0.0110    -2.4980 ca         1 2YM       0.056000
     13 N5           3.9470    -0.0240    -4.8990 na         1 2YM       0.220700
     14 C5           2.8470    -0.0270    -5.7110 cc         1 2YM       0.375700
     15 N2           1.7570    -0.0230    -4.9860 nd         1 2YM      -0.590100
     16 N3           2.8810    -0.0340    -7.0890 nu         1 2YM      -0.435200
     17 C6           4.1690    -0.0370    -7.7890 c3         1 2YM       0.137800
     18 C7           3.9260    -0.0440    -9.3000 c3         1 2YM       0.150800
     19 N4           5.2170    -0.0480   -10.0030 n3         1 2YM      -0.537600
     20 C12          5.0330     0.1840   -11.4410 c3         1 2YM       0.151300
     21 C11          6.4000     0.3190   -12.1160 c3         1 2YM      -0.022900
     22 C10          7.2060    -0.9620   -11.8850 c3         1 2YM      -0.027400
     23 C9           7.3420    -1.2060   -10.3800 c3         1 2YM      -0.022900
     24 C8           5.9470    -1.2970    -9.7550 c3         1 2YM       0.151300
     25 H1           4.9810    -0.0010     0.1250 hn         1 2YM       0.280800
     26 H2           3.1680    -0.0020     3.1210 hn         1 2YM       0.224133
     27 H3           4.4160     0.8280     2.4680 hn         1 2YM       0.224133
     28 H4           5.2110    -0.1120    -2.3110 ha         1 2YM       0.110000
     29 H5           0.2570     0.1320    -2.5480 ha         1 2YM       0.147000
     30 H6           4.9030    -0.0260    -5.1950 hn         1 2YM       0.143700
     31 H8           2.0280    -0.0100    -7.6110 hn         1 2YM       0.324800
     32 H9           4.7300    -0.9200    -7.5090 h1         1 2YM       0.023200
     33 H10          4.7300     0.8500    -7.5180 h1         1 2YM       0.023200
     34 H11          3.3640     0.8390    -9.5800 h1         1 2YM       0.019700
     35 H12          3.3640    -0.9300    -9.5710 h1         1 2YM       0.019700
     36 H14          4.4980    -0.6520   -11.8750 h1         1 2YM       0.009700
     37 H15          4.4680     1.0970   -11.5890 h1         1 2YM       0.009700
     38 H16          6.9320     1.1610   -11.6900 hc         1 2YM       0.022200
     39 H17          6.2640     0.4710   -13.1800 hc         1 2YM       0.022200
     40 H18          8.1910    -0.8530   -12.3230 hc         1 2YM       0.018200
     41 H19          6.6920    -1.8000   -12.3410 hc         1 2YM       0.018200
     42 H20          7.8730    -2.1360   -10.2120 hc         1 2YM       0.022200
     43 H21          7.8860    -0.3860    -9.9290 hc         1 2YM       0.022200
     44 H22          5.4070    -2.1240   -10.1990 h1         1 2YM       0.009700
     45 H23          6.0410    -1.4520    -8.6870 h1         1 2YM       0.009700
     46 HN3          4.4300    -0.8080     2.4690 hn         1 2YM       0.224133
@<TRIPOS>BOND
     1     1     2 2   
     2     2     3 1   
     3     2     4 1   
     4     3     7 2   
     5     4     5 ar  
     6     4    12 ar  
     7     5     6 1   
     8     5     9 ar  
     9     6     7 1   
    10     6    25 1   
    11     7     8 1   
    12     8    26 1   
    13     8    27 1   
    14     8    46 1   
    15     9    10 ar  
    16     9    28 1   
    17    10    11 ar  
    18    10    13 1   
    19    11    12 ar  
    20    11    15 1   
    21    12    29 1   
    22    13    14 1   
    23    13    30 1   
    24    14    15 2   
    25    14    16 1   
    26    16    17 1   
    27    16    31 1   
    28    17    18 1   
    29    17    32 1   
    30    17    33 1   
    31    18    19 1   
    32    18    34 1   
    33    18    35 1   
    34    19    20 1   
    35    19    24 1   
    36    20    21 1   
    37    20    36 1   
    38    20    37 1   
    39    21    22 1   
    40    21    38 1   
    41    21    39 1   
    42    22    23 1   
    43    22    40 1   
    44    22    41 1   
    45    23    24 1   
    46    23    42 1   
    47    23    43 1   
    48    24    44 1   
    49    24    45 1   
@<TRIPOS>SUBSTRUCTURE
     1 2YM         1 TEMP              0 ****  ****    0 ROOT
