@<TRIPOS>MOLECULE
molecule
   46    49     1     0     0
SMALL
bcc


@<TRIPOS>ATOM
      1 O            0.0000     0.0000     0.0000 o          1 2YM      -0.460100
      2 C1           1.2200     0.0000     0.0000 c          1 2YM       0.727100
      3 N1           1.9060     0.0000     1.1520 nc         1 2YM      -0.678100
      4 C2           1.9750    -0.0050    -1.2670 ca         1 2YM      -0.213600
      5 C15          3.3830    -0.0060    -1.1990 ca         1 2YM       0.120600
      6 N6           3.9830    -0.0000     0.0510 na         1 2YM      -0.687600
      7 C            3.2210    -0.0010     1.1770 cd         1 2YM       0.692100
      8 N            3.8520     0.0050     2.3890 nz         1 2YM      -0.750600
      9 C14          4.1330    -0.0120    -2.3620 ca         1 2YM      -0.145000
     10 C13          3.4940    -0.0180    -3.5910 ca         1 2YM      -0.050200
     11 C4           2.0870    -0.0170    -3.6650 ca         1 2YM       0.140400
     12 C3           1.3300    -0.0110    -2.4980 ca         1 2YM       0.011000
     13 N5           3.9470    -0.0240    -4.8990 na         1 2YM      -0.292300
     14 C5           2.8470    -0.0270    -5.7110 cc         1 2YM       0.712700
     15 N2           1.7570    -0.0230    -4.9860 nd         1 2YM      -0.657100
     16 N3           2.8810    -0.0340    -7.0890 nu         1 2YM      -0.860200
     17 C6           4.1690    -0.0370    -7.7890 c3         1 2YM       0.220800
     18 C7           3.9260    -0.0440    -9.3000 c3         1 2YM       0.151800
     19 N4           5.2170    -0.0480   -10.0030 n3         1 2YM      -0.729600
     20 C12          5.0330     0.1840   -11.4410 c3         1 2YM       0.162300
     21 C11          6.4000     0.3190   -12.1160 c3         1 2YM      -0.077900
     22 C10          7.2060    -0.9620   -11.8850 c3         1 2YM      -0.083400
     23 C9           7.3420    -1.2060   -10.3800 c3         1 2YM      -0.077900
     24 C8           5.9470    -1.2970    -9.7550 c3         1 2YM       0.162300
     25 H1           4.9810    -0.0010     0.1250 hn         1 2YM       0.453800
     26 H2           3.1680    -0.0020     3.1210 hn         1 2YM       0.480800
     27 H3           4.4160     0.8280     2.4680 hn         1 2YM       0.480800
     28 H4           5.2110    -0.1120    -2.3110 ha         1 2YM       0.137000
     29 H5           0.2570     0.1320    -2.5480 ha         1 2YM       0.189000
     30 H6           4.9030    -0.0260    -5.1950 hn         1 2YM       0.315700
     31 H8           2.0280    -0.0100    -7.6110 hn         1 2YM       0.483800
     32 H9           4.7300    -0.9200    -7.5090 h1         1 2YM       0.049700
     33 H10          4.7300     0.8500    -7.5180 h1         1 2YM       0.049700
     34 H11          3.3640     0.8390    -9.5800 h1         1 2YM       0.047700
     35 H12          3.3640    -0.9300    -9.5710 h1         1 2YM       0.047700
     36 H14          4.4980    -0.6520   -11.8750 h1         1 2YM       0.034950
     37 H15          4.4680     1.0970   -11.5890 h1         1 2YM       0.034950
     38 H16          6.9320     1.1610   -11.6900 hc         1 2YM       0.052700
     39 H17          6.2640     0.4710   -13.1800 hc         1 2YM       0.052700
     40 H18          8.1910    -0.8530   -12.3230 hc         1 2YM       0.047200
     41 H19          6.6920    -1.8000   -12.3410 hc         1 2YM       0.047200
     42 H20          7.8730    -2.1360   -10.2120 hc         1 2YM       0.052700
     43 H21          7.8860    -0.3860    -9.9290 hc         1 2YM       0.052700
     44 H22          5.4070    -2.1240   -10.1990 h1         1 2YM       0.034950
     45 H23          6.0410    -1.4520    -8.6870 h1         1 2YM       0.034950
     46 HN3          4.4300    -0.8080     2.4690 hn         1 2YM       0.480800
@<TRIPOS>BOND
     1    22    21 1   
     2    22    23 1   
     3    21    20 1   
     4    23    24 1   
     5    20    19 1   
     6    24    19 1   
     7    19    18 1   
     8    18    17 1   
     9    17    16 1   
    10    16    14 1   
    11    14    13 1   
    12    14    15 2   
    13    13    10 1   
    14    15    11 1   
    15    10    11 ar  
    16    10     9 ar  
    17    11    12 ar  
    18     9     5 ar  
    19    12     4 ar  
    20     5     4 ar  
    21     5     6 1   
    22     4     2 1   
    23     6     7 1   
    24     2     1 2   
    25     2     3 1   
    26     7     3 2   
    27     7     8 1   
    28     6    25 1   
    29     8    26 1   
    30     8    27 1   
    31     9    28 1   
    32    12    29 1   
    33    13    30 1   
    34    16    31 1   
    35    17    32 1   
    36    17    33 1   
    37    18    34 1   
    38    18    35 1   
    39    20    36 1   
    40    20    37 1   
    41    21    38 1   
    42    21    39 1   
    43    22    40 1   
    44    22    41 1   
    45    23    42 1   
    46    23    43 1   
    47    24    44 1   
    48    24    45 1   
    49    46     8 1   
@<TRIPOS>SUBSTRUCTURE
     1 2YM         1 TEMP              0 ****  ****    0 ROOT
