@<TRIPOS>MOLECULE
2YO
   43    46     1     0     0
SMALL
bcc


@<TRIPOS>ATOM
      1 O            0.0000     0.0000     0.0000 o          1 2YO      -0.575100
      2 C1           1.2180     0.0000     0.0000 c          1 2YO       0.732100
      3 N1           1.9110     0.0000     1.1550 nc         1 2YO      -0.645100
      4 C2           1.9760    -0.0070    -1.2650 ca         1 2YO      -0.227600
      5 C15          3.3850    -0.0080    -1.1870 ca         1 2YO      -0.008400
      6 N6           3.9740    -0.0010     0.0660 na         1 2YO      -0.217600
      7 C            3.2150    -0.0000     1.1750 cd         1 2YO       0.516100
      8 C14          4.1430    -0.0140    -2.3450 ca         1 2YO      -0.144000
      9 C13          3.5100    -0.0210    -3.5780 ca         1 2YO      -0.229200
     10 C4           2.1030    -0.0210    -3.6620 ca         1 2YO       0.075400
     11 C3           1.3380    -0.0140    -2.4990 ca         1 2YO       0.051000
     12 N5           3.9710    -0.0310    -4.8830 na         1 2YO       0.212700
     13 C5           2.8770    -0.0350    -5.7010 cc         1 2YO       0.344700
     14 N2           1.7830    -0.0290    -4.9840 nd         1 2YO      -0.590100
     15 N3           2.9200    -0.0440    -7.0790 nu         1 2YO      -0.469200
     16 C6           4.2110    -0.0480    -7.7720 c3         1 2YO       0.147800
     17 C7           3.9790    -0.0580    -9.2840 c3         1 2YO       0.148800
     18 N4           5.2740    -0.0630    -9.9780 n3         1 2YO      -0.535600
     19 C12          5.0990     0.1660   -11.4180 c3         1 2YO       0.150800
     20 C11          6.4700     0.2990   -12.0850 c3         1 2YO      -0.023400
     21 C10          7.2740    -0.9830   -11.8470 c3         1 2YO      -0.027400
     22 C9           7.4000    -1.2240   -10.3400 c3         1 2YO      -0.023400
     23 C8           6.0020    -1.3120    -9.7240 c3         1 2YO       0.150800
     24 H1           4.9710    -0.0020     0.1460 hn         1 2YO       0.280800
     25 H2           3.7120    -0.0000     2.1370 h5         1 2YO      -0.003200
     26 H3           5.2190    -0.1290    -2.2880 ha         1 2YO       0.105000
     27 H4           0.2670     0.1370    -2.5560 ha         1 2YO       0.135000
     28 H5           4.9290    -0.0340    -5.1730 hn         1 2YO       0.132700
     29 H7           2.0690    -0.0410    -7.6060 hn         1 2YO       0.315800
     30 H8           4.7710    -0.9310    -7.4870 h1         1 2YO       0.017200
     31 H9           4.7710     0.8380    -7.4990 h1         1 2YO       0.017200
     32 H10          3.4190    -0.9440    -9.5570 h1         1 2YO       0.016700
     33 H11          3.4200     0.8250    -9.5690 h1         1 2YO       0.016700
     34 H13          4.5670    -0.6710   -11.8540 h1         1 2YO       0.010200
     35 H14          4.5350     1.0780   -11.5710 h1         1 2YO       0.010200
     36 H15          6.3410     0.4510   -13.1500 hc         1 2YO       0.020450
     37 H16          7.0000     1.1410   -11.6560 hc         1 2YO       0.020450
     38 H17          8.2620    -0.8750   -12.2780 hc         1 2YO       0.014700
     39 H18          6.7620    -1.8200   -12.3050 hc         1 2YO       0.014700
     40 H19          7.9290    -2.1530   -10.1660 hc         1 2YO       0.020450
     41 H20          7.9420    -0.4030    -9.8870 hc         1 2YO       0.020450
     42 H21          6.0890    -1.4670    -8.6550 h1         1 2YO       0.010200
     43 H22          5.4640    -2.1400   -10.1710 h1         1 2YO       0.010200
@<TRIPOS>BOND
     1     1     2 2   
     2     2     3 1   
     3     2     4 1   
     4     3     7 2   
     5     4     5 ar  
     6     4    11 ar  
     7     5     6 1   
     8     5     8 ar  
     9     6     7 1   
    10     6    24 1   
    11     7    25 1   
    12     8     9 ar  
    13     8    26 1   
    14     9    10 ar  
    15     9    12 1   
    16    10    11 ar  
    17    10    14 1   
    18    11    27 1   
    19    12    13 1   
    20    12    28 1   
    21    13    14 2   
    22    13    15 1   
    23    15    16 1   
    24    15    29 1   
    25    16    17 1   
    26    16    30 1   
    27    16    31 1   
    28    17    18 1   
    29    17    32 1   
    30    17    33 1   
    31    18    19 1   
    32    18    23 1   
    33    19    20 1   
    34    19    34 1   
    35    19    35 1   
    36    20    21 1   
    37    20    36 1   
    38    20    37 1   
    39    21    22 1   
    40    21    38 1   
    41    21    39 1   
    42    22    23 1   
    43    22    40 1   
    44    22    41 1   
    45    23    42 1   
    46    23    43 1   
@<TRIPOS>SUBSTRUCTURE
     1 2YO         1 TEMP              0 ****  ****    0 ROOT
