@<TRIPOS>MOLECULE
2YQ
   42    46     1     0     0
SMALL
bcc


@<TRIPOS>ATOM
      1 N1           0.0000     0.0000     0.0000 nc         1 2YQ      -0.518300
      2 N3           4.1110     0.0750     0.0800 nu         1 2YQ      -0.409600
      3 C4          -0.1700    -0.0260     2.3970 c          1 2YQ       0.613100
      4 C5           2.0790    -0.0070    -1.2900 c3         1 2YQ      -0.100300
      5 C6           3.4320     0.6800    -1.0750 c3         1 2YQ       0.195800
      6 C7           3.4260     0.0260     1.2950 ca         1 2YQ       0.099600
      7 C8           4.0850     0.0030     2.5070 ca         1 2YQ      -0.128000
      8 C10          1.9830    -0.0450     3.6910 ca         1 2YQ      -0.098000
      9 C13          2.2100     3.9000     0.4690 ca         1 2YQ      -0.123000
     10 C15          3.6190     4.4380    -1.3970 ca         1 2YQ      -0.123000
     11 C17          2.3040    -1.4310    -1.7340 cc         1 2YQ       0.274800
     12 C14          2.8140     4.8440    -0.3450 ca         1 2YQ       0.109900
     13 C12          2.4110     2.5500     0.2320 ca         1 2YQ      -0.087500
     14 C16          3.8190     3.0880    -1.6340 ca         1 2YQ      -0.087500
     15 C11          3.2130     2.1480    -0.8180 ca         1 2YQ      -0.111300
     16 N6           2.9410    -2.3530    -1.0600 nd         1 2YQ      -0.709000
     17 C18          2.9490    -3.4920    -1.7510 cd         1 2YQ       0.615900
     18 N5           2.3140    -3.3090    -2.8790 nc         1 2YQ      -0.680800
     19 N4           1.8800    -1.9740    -2.8880 na         1 2YQ       0.356600
     20 C19          1.7110    -1.2740    -4.1490 c3         1 2YQ       0.018600
     21 C3           1.2990     0.0000     0.0000 cd         1 2YQ       0.412900
     22 C2           2.0230     0.0000     1.2700 ca         1 2YQ      -0.204900
     23 C9           3.3640    -0.0330     3.6960 ca         1 2YQ       0.130900
     24 F1           4.0070     0.0790     4.8950 f          1 2YQ      -0.127900
     25 C1           1.2960    -0.0230     2.4790 ca         1 2YQ      -0.102600
     26 O           -0.8160    -0.2830     3.3560 o          1 2YQ      -0.642500
     27 N2          -0.7500    -0.0070     1.1770 ns         1 2YQ       0.072100
     28 H1           4.6390    -0.7200    -0.2220 hn         1 2YQ       0.297800
     29 H2           1.5220     0.5280    -2.0490 hc         1 2YQ       0.057700
     30 H3           4.0440     0.5510    -1.9590 h1         1 2YQ       0.042700
     31 H4           5.1270    -0.2880     2.5530 ha         1 2YQ       0.129000
     32 H5           1.4380    -0.0730     4.6280 ha         1 2YQ       0.144000
     33 H7           4.0910     5.1760    -2.0340 ha         1 2YQ       0.120500
     34 H8           1.9380     1.8120     0.8690 ha         1 2YQ       0.128000
     35 H9           4.4490     2.7700    -2.4570 ha         1 2YQ       0.128000
     36 H10          3.4040    -4.4240    -1.4370 h5         1 2YQ       0.026100
     37 H11          1.0730    -0.4110    -4.0010 h1         1 2YQ       0.027700
     38 H12          1.2550    -1.9390    -4.8730 h1         1 2YQ       0.027700
     39 H13          2.6770    -0.9510    -4.5150 h1         1 2YQ       0.027700
     40 H14         -1.7440    -0.1140     1.1400 hn         1 2YQ       0.207500
     41 H6           1.5810     4.2180     1.2920 ha         1 2YQ       0.120500
     42 F2           2.6300     6.1740    -0.1010 f          1 2YQ      -0.131900
@<TRIPOS>BOND
     1     1    21 2   
     2     1    27 1   
     3     2     5 1   
     4     2     6 1   
     5     2    28 1   
     6     3    25 1   
     7     3    26 2   
     8     3    27 1   
     9     4     5 1   
    10     4    11 1   
    11     4    21 1   
    12     4    29 1   
    13     5    15 1   
    14     5    30 1   
    15     6     7 ar  
    16     6    22 ar  
    17     7    23 ar  
    18     7    31 1   
    19     8    23 ar  
    20     8    25 ar  
    21     8    32 1   
    22     9    12 ar  
    23     9    13 ar  
    24     9    41 1   
    25    10    12 ar  
    26    10    14 ar  
    27    10    33 1   
    28    11    16 2   
    29    11    19 1   
    30    12    42 1   
    31    13    15 ar  
    32    13    34 1   
    33    14    15 ar  
    34    14    35 1   
    35    16    17 1   
    36    17    18 2   
    37    17    36 1   
    38    18    19 1   
    39    19    20 1   
    40    20    37 1   
    41    20    38 1   
    42    20    39 1   
    43    21    22 1   
    44    22    25 ar  
    45    23    24 1   
    46    27    40 1   
@<TRIPOS>SUBSTRUCTURE
     1 2YQ         1 TEMP              0 ****  ****    0 ROOT
