@<TRIPOS>MOLECULE
2YR
   39    40     1     0     0
SMALL
bcc


@<TRIPOS>ATOM
      1 P            0.0000     0.0000     0.0000 p5         1 2YR       0.687900
      2 OP1          1.4800     0.0000     0.0000 o          1 2YR      -0.731833
      3 OP2         -0.5360     0.0000     1.5170 o          1 2YR      -0.731833
      4 O5'         -0.5370     1.3140    -0.7600 os         1 2YR      -0.473200
      5 C5'         -0.1490     1.6570    -2.0920 c3         1 2YR       0.282400
      6 C4'         -0.8390     2.9580    -2.5040 c3         1 2YR       0.160100
      7 O4'         -0.3180     4.0720    -1.7480 os         1 2YR      -0.337600
      8 C3'         -0.4920     3.3190    -3.9710 c3         1 2YR       0.149100
      9 O3'         -1.3840     2.6720    -4.8800 oh         1 2YR      -0.580800
     10 C2'         -0.7020     4.8520    -3.9870 c3         1 2YR      -0.110400
     11 C1'         -0.6060     5.2630    -2.5010 c3         1 2YR       0.210500
     12 N1           0.4720     6.2380    -2.3230 n          1 2YR       0.068000
     13 C2           1.7480     5.8760    -2.5500 c          1 2YR       0.711900
     14 O2           1.9930     4.7350    -2.9050 o          1 2YR      -0.627500
     15 N3           2.7470     6.7430    -2.3960 nc         1 2YR      -0.672100
     16 C4           2.5080     7.9900    -2.0110 cd         1 2YR       0.584500
     17 N4           3.5480     8.8770    -1.8560 nu         1 2YR      -0.468200
     18 C5           1.1820     8.4010    -1.7640 cd         1 2YR      -0.438600
     19 C6           0.1770     7.5100    -1.9320 cc         1 2YR      -0.046400
     20 S            7.5830     9.0810    -2.1890 sh         1 2YR      -0.428900
     21 C8           5.8790     9.6140    -1.8690 c3         1 2YR       0.075700
     22 C9           4.9230     8.4450    -2.1140 c3         1 2YR       0.185800
     23 H3           0.9250     1.7880    -2.1330 h1         1 2YR      -0.010800
     24 H4          -0.4420     0.8630    -2.7680 h1         1 2YR      -0.010800
     25 H5          -1.9120     2.8840    -2.3770 h1         1 2YR       0.019700
     26 H6           0.5400     3.0720    -4.1920 h1         1 2YR       0.045700
     27 H7          -0.9260     2.4660    -5.6780 ho         1 2YR       0.372000
     28 H8          -1.6800     5.0950    -4.3840 hc         1 2YR       0.018200
     29 H9           0.0790     5.3340    -4.5630 hc         1 2YR       0.018200
     30 H10         -1.5490     5.6840    -2.1750 h2         1 2YR       0.010700
     31 H11          3.3640     9.8170    -1.5670 hn         1 2YR       0.279800
     32 H12          0.9700     9.4160    -1.4520 ha         1 2YR       0.114000
     33 H13         -0.8500     7.8020    -1.7490 h4         1 2YR       0.116000
     34 H14          8.4120    10.0960    -1.9770 hs         1 2YR       0.152800
     35 H15          5.6270    10.4330    -2.5320 h1         1 2YR       0.020700
     36 H16          5.7910     9.9430    -0.8400 h1         1 2YR       0.020700
     37 H17          5.0120     8.1160    -3.1420 h1         1 2YR       0.047200
     38 H18          5.1760     7.6280    -1.4500 h1         1 2YR       0.047200
     39 OP3         -0.5350    -1.3110    -0.7680 o          1 2YR      -0.731833
@<TRIPOS>BOND
     1     1     2 1   
     2     1     3 1   
     3     1     4 1   
     4     1    39 1   
     5     4     5 1   
     6     5     6 1   
     7     5    23 1   
     8     5    24 1   
     9     6     7 1   
    10     6     8 1   
    11     6    25 1   
    12     7    11 1   
    13     8     9 1   
    14     8    10 1   
    15     8    26 1   
    16     9    27 1   
    17    10    11 1   
    18    10    28 1   
    19    10    29 1   
    20    11    12 1   
    21    11    30 1   
    22    12    13 1   
    23    12    19 1   
    24    13    14 2   
    25    13    15 1   
    26    15    16 2   
    27    16    17 1   
    28    16    18 1   
    29    17    22 1   
    30    17    31 1   
    31    18    19 2   
    32    18    32 1   
    33    19    33 1   
    34    20    21 1   
    35    20    34 1   
    36    21    22 1   
    37    21    35 1   
    38    21    36 1   
    39    22    37 1   
    40    22    38 1   
@<TRIPOS>SUBSTRUCTURE
     1 2YR         1 TEMP              0 ****  ****    0 ROOT
