@<TRIPOS>MOLECULE
2YU
   16    16     1     0     0
SMALL
bcc


@<TRIPOS>ATOM
      1 S1           0.0000     0.0000     0.0000 s          1 2YU      -0.659400
      2 C1           1.7130     0.0000     0.0000 cs         1 2YU       0.204600
      3 C2           2.4140     0.0000     1.2170 cc         1 2YU      -0.121200
      4 C3           3.7770    -0.0000     1.2030 cd         1 2YU      -0.040200
      5 C6           4.5530    -0.0010     2.4940 c3         1 2YU       0.055100
      6 C4           4.4500     0.0010    -0.0290 cd         1 2YU      -0.134000
      7 C5           3.7450     0.0010    -1.1840 cc         1 2YU      -0.205400
      8 N1           2.3860    -0.0050    -1.1650 n          1 2YU       0.437500
      9 O1           1.6690    -0.0050    -2.3870 oh         1 2YU      -0.441100
     10 H1           1.8820     0.1500     2.1490 ha         1 2YU       0.154000
     11 H2           5.5910    -0.2360     2.2920 hc         1 2YU       0.017700
     12 H3           4.1380    -0.7450     3.1640 hc         1 2YU       0.017700
     13 H4           4.4870     0.9770     2.9560 hc         1 2YU       0.017700
     14 H5           5.5330     0.0030    -0.0560 ha         1 2YU       0.128000
     15 H6           4.2690    -0.0010    -2.1320 h4         1 2YU       0.144000
     16 H7           1.5530    -0.8930    -2.6830 ho         1 2YU       0.423000
@<TRIPOS>BOND
     1     1     2 2   
     2     2     3 1   
     3     2     8 1   
     4     3     4 2   
     5     3    10 1   
     6     4     5 1   
     7     4     6 1   
     8     5    11 1   
     9     5    12 1   
    10     5    13 1   
    11     6     7 2   
    12     6    14 1   
    13     7     8 1   
    14     7    15 1   
    15     8     9 1   
    16     9    16 1   
@<TRIPOS>SUBSTRUCTURE
     1 2YU         1 TEMP              0 ****  ****    0 ROOT
