@<TRIPOS>MOLECULE
2YV
   41    44     1     0     0
SMALL
bcc


@<TRIPOS>ATOM
      1 C1           0.0000     0.0000     0.0000 ca         1 2YV      -0.188600
      2 C2           1.3940     0.0000     0.0000 ca         1 2YV       0.023000
      3 C3           2.0740     0.0000     1.2000 ca         1 2YV      -0.257200
      4 C4           1.3690     0.0000     2.4230 ca         1 2YV       0.129400
      5 C5          -0.0260     0.0010     2.4280 ca         1 2YV       0.029000
      6 C6          -0.7170     0.0060     1.2230 ca         1 2YV       0.037400
      7 C7          -0.7670     0.0010    -1.2510 c          1 2YV       0.636100
      8 O8          -0.2090     0.0000    -2.3340 o          1 2YV      -0.605500
      9 N9          -2.0750     0.0070     1.1910 nc         1 2YV      -0.348100
     10 C10         -2.7320     0.0120     0.0600 cd         1 2YV      -0.027200
     11 N11         -4.1040     0.0130     0.1010 nz         1 2YV       0.217400
     12 N12         -2.1180     0.0010    -1.1600 ns         1 2YV      -0.028400
     13 N13          3.4210     0.0000     1.5340 na         1 2YV       0.236700
     14 N14          2.2960     0.0010     3.4150 nc         1 2YV      -0.599100
     15 C15          3.5000     0.0010     2.8960 cd         1 2YV       0.377700
     16 N16          4.6720     0.0000     3.6200 nu         1 2YV      -0.434200
     17 C17          5.9610    -0.0000     2.9260 c3         1 2YV       0.147800
     18 C18          7.0940    -0.0010     3.9550 c3         1 2YV       0.033900
     19 C19         10.8560    -0.0020     1.9300 ca         1 2YV      -0.088000
     20 C20         10.2470     1.1960     2.2580 ca         1 2YV      -0.092000
     21 C21          9.0300     1.1960     2.9130 ca         1 2YV      -0.095000
     22 C22          8.4210    -0.0020     3.2400 ca         1 2YV      -0.113300
     23 C23          9.0300    -1.1980     2.9130 ca         1 2YV      -0.095000
     24 C24         10.2470    -1.1980     2.2570 ca         1 2YV      -0.092000
     25 H1           1.9350    -0.1250    -0.9300 ha         1 2YV       0.134000
     26 H2          -0.5640     0.1080     3.3620 ha         1 2YV       0.132000
     27 H3          -4.4100     0.0220     1.0540 hn         1 2YV       0.213467
     28 H4          -4.4520    -0.8080    -0.3530 hn         1 2YV       0.213467
     29 H5          -2.6710     0.0050    -1.9940 hn         1 2YV       0.183500
     30 H6           4.1920     0.0000     0.8950 hn         1 2YV       0.148700
     31 H8           4.6420    -0.0220     4.6200 hn         1 2YV       0.325800
     32 H9           6.0380     0.8850     2.3060 h1         1 2YV       0.018200
     33 H10          6.0370    -0.8840     2.3050 h1         1 2YV       0.018200
     34 H11          7.0180    -0.8860     4.5750 hc         1 2YV       0.028700
     35 H12          7.0190     0.8830     4.5760 hc         1 2YV       0.028700
     36 H15          8.5530     2.1340     3.1710 ha         1 2YV       0.105000
     37 H16          8.5530    -2.1360     3.1690 ha         1 2YV       0.105000
     38 H17         10.7240    -2.1370     2.0010 ha         1 2YV       0.109000
     39 H13         11.8100    -0.0020     1.4160 ha         1 2YV       0.110000
     40 H113        -4.4510     0.8260    -0.3690 hn         1 2YV       0.213467
     41 H14         10.7240     2.1340     2.0020 ha         1 2YV       0.109000
@<TRIPOS>BOND
     1     1     2 ar  
     2     1     6 ar  
     3     1     7 1   
     4     2     3 ar  
     5     2    25 1   
     6     3     4 ar  
     7     3    13 1   
     8     4     5 ar  
     9     4    14 1   
    10     5     6 ar  
    11     5    26 1   
    12     6     9 1   
    13     7     8 2   
    14     7    12 1   
    15     9    10 2   
    16    10    11 1   
    17    10    12 1   
    18    11    27 1   
    19    11    28 1   
    20    11    40 1   
    21    12    29 1   
    22    13    15 1   
    23    13    30 1   
    24    14    15 2   
    25    15    16 1   
    26    16    17 1   
    27    16    31 1   
    28    17    18 1   
    29    17    32 1   
    30    17    33 1   
    31    18    22 1   
    32    18    34 1   
    33    18    35 1   
    34    19    20 ar  
    35    19    24 ar  
    36    19    39 1   
    37    20    21 ar  
    38    20    41 1   
    39    21    22 ar  
    40    21    36 1   
    41    22    23 ar  
    42    23    24 ar  
    43    23    37 1   
    44    24    38 1   
@<TRIPOS>SUBSTRUCTURE
     1 2YV         1 TEMP              0 ****  ****    0 ROOT
