@<TRIPOS>MOLECULE
molecule
   47    50     1     0     0
SMALL
bcc


@<TRIPOS>ATOM
      1 C1           0.0000     0.0000     0.0000 ca         1 2YW      -0.182600
      2 C2           1.3930     0.0000     0.0000 ca         1 2YW      -0.032000
      3 C3           2.0750     0.0000     1.2000 ca         1 2YW      -0.080200
      4 C4           1.3700     0.0020     2.4220 ca         1 2YW       0.166400
      5 C5          -0.0240     0.0030     2.4280 ca         1 2YW      -0.025000
      6 C6          -0.7170     0.0070     1.2230 ca         1 2YW       0.119400
      7 C7          -0.7680    -0.0000    -1.2510 c          1 2YW       0.726100
      8 N8          -2.0740     0.0090     1.1920 nc         1 2YW      -0.537100
      9 C9          -2.7310     0.0130     0.0600 cd         1 2YW       0.438800
     10 N10         -4.1030     0.0150     0.1020 nz         1 2YW      -0.731600
     11 N11         -2.1170     0.0010    -1.1590 ns         1 2YW      -0.485400
     12 N12          3.4230     0.0000     1.5330 na         1 2YW      -0.287300
     13 N13          2.2980     0.0020     3.4150 nd         1 2YW      -0.667100
     14 C14          3.5010     0.0010     2.8960 cc         1 2YW       0.718700
     15 N15          4.6730     0.0010     3.6180 nu         1 2YW      -0.858200
     16 C16          5.9630    -0.0010     2.9240 c3         1 2YW       0.226800
     17 C17          7.0960    -0.0010     3.9530 c3         1 2YW      -0.048100
     18 O18         -0.2100     0.0000    -2.3330 o          1 2YW      -0.564500
     19 C19         10.8610    -0.0060     1.9250 ca         1 2YW      -0.121600
     20 C20         12.1610    -0.0070     1.2230 c          1 2YW       0.644700
     21 O21         12.7530    -1.1750     0.9050 os         1 2YW      -0.429900
     22 C22         14.0290    -1.1000     0.2160 c3         1 2YW       0.140700
     23 C23         10.2440     1.2020     2.2570 ca         1 2YW      -0.067500
     24 C24          9.0300     1.1960     2.9110 ca         1 2YW      -0.139000
     25 C25          8.4230    -0.0030     3.2380 ca         1 2YW      -0.074300
     26 C26          9.0280    -1.2030     2.9120 ca         1 2YW      -0.139000
     27 C27         10.2400    -1.2120     2.2540 ca         1 2YW      -0.067500
     28 O28         12.6970     1.0440     0.9340 o          1 2YW      -0.540000
     29 H1           1.9350    -0.1180    -0.9310 ha         1 2YW       0.169000
     30 H2          -0.5620     0.1100     3.3630 ha         1 2YW       0.174000
     31 H3          -4.4080     0.0260     1.0550 hn         1 2YW       0.474133
     32 H4          -4.4520    -0.8070    -0.3510 hn         1 2YW       0.474133
     33 H5          -2.6700     0.0050    -1.9930 hn         1 2YW       0.339500
     34 H6           4.1930    -0.0000     0.8940 hn         1 2YW       0.321700
     35 H8           4.6430     0.0020     4.6190 hn         1 2YW       0.484800
     36 H9           6.0390     0.8830     2.3020 h1         1 2YW       0.048200
     37 H10          6.0380    -0.8860     2.3040 h1         1 2YW       0.048200
     38 H11          7.0200     0.8840     4.5730 hc         1 2YW       0.065700
     39 H12          7.0190    -0.8850     4.5740 hc         1 2YW       0.065700
     40 H13         14.7430    -0.5700     0.8360 h1         1 2YW       0.053367
     41 H14         13.9030    -0.5720    -0.7210 h1         1 2YW       0.053367
     42 H15         14.3930    -2.1010     0.0210 h1         1 2YW       0.053367
     43 H16         10.7180     2.1420     2.0010 ha         1 2YW       0.160500
     44 H17          8.5510     2.1330     3.1690 ha         1 2YW       0.138000
     45 H18          8.5450    -2.1390     3.1680 ha         1 2YW       0.138000
     46 H19         10.7130    -2.1530     1.9990 ha         1 2YW       0.160500
     47 H103        -4.4490     0.8450    -0.3380 hn         1 2YW       0.474133
@<TRIPOS>BOND
     1    28    20 2
     2    27    26 ar
     3    27    19 ar
     4    26    25 ar
     5    20    19 1
     6    20    21 1
     7    19    23 ar
     8    25    17 1
     9    25    24 ar
    10    17    16 1
    11    23    24 ar
    12    22    21 1
    13    16    15 1
    14    15    14 1
    15    14    13 2
    16    14    12 1
    17    13     4 1
    18    12     3 1
    19     4     3 ar
    20     4     5 ar
    21     3     2 ar
    22     5     6 ar
    23     2     1 ar
    24     6     1 ar
    25     6     8 1
    26     1     7 1
    27     8     9 2
    28     7    18 2
    29     7    11 1
    30     9    11 1
    31     9    10 1
    32     2    29 1
    33     5    30 1
    34    10    31 1
    35    10    32 1
    36    11    33 1
    37    12    34 1
    38    15    35 1
    39    16    36 1
    40    16    37 1
    41    17    38 1
    42    17    39 1
    43    22    40 1
    44    22    41 1
    45    22    42 1
    46    23    43 1
    47    24    44 1
    48    26    45 1
    49    27    46 1
    50    47    10 1
@<TRIPOS>SUBSTRUCTURE
     1 2YW         1 TEMP              0 ****  ****    0 ROOT
