@<TRIPOS>MOLECULE
molecule
   42    45     1     0     0
SMALL
bcc


@<TRIPOS>ATOM
      1 O            0.0000     0.0000     0.0000 o          1 2YX      -0.563500
      2 C17          1.2180     0.0000     0.0000 c          1 2YX       0.718100
      3 N6           1.9180     0.0000     1.1570 ns         1 2YX      -0.533400
      4 C            3.2830    -0.0010     1.1450 cc         1 2YX       0.452800
      5 N            3.9480    -0.0010     2.3460 nz         1 2YX      -0.841600
      6 C16          1.9780    -0.0070    -1.2550 ca         1 2YX      -0.178600
      7 C1           3.3940    -0.0070    -1.1790 ca         1 2YX       0.126400
      8 N1           3.9870    -0.0020     0.0430 nd         1 2YX      -0.464100
      9 C15          1.3390    -0.0120    -2.4950 ca         1 2YX      -0.055000
     10 C14          2.0940    -0.0190    -3.6490 ca         1 2YX      -0.118200
     11 C3           3.5030    -0.0200    -3.5840 ca         1 2YX       0.135400
     12 C2           4.1470    -0.0130    -2.3470 ca         1 2YX      -0.028000
     13 N5           1.7720    -0.0260    -5.0010 na         1 2YX      -0.275300
     14 C4           2.9470    -0.0310    -5.6940 cc         1 2YX       0.747700
     15 N2           3.9600    -0.0260    -4.8610 nd         1 2YX      -0.672100
     16 N3           3.0540    -0.0390    -7.0670 nu         1 2YX      -0.796200
     17 C5           1.8460    -0.0430    -7.8950 c3         1 2YX      -0.115200
     18 C6           2.2410    -0.0530    -9.3730 c3         1 2YX      -0.135100
     19 C7           0.9980    -0.0570   -10.2250 ca         1 2YX      -0.218300
     20 C13          0.4300     1.1410   -10.6210 ca         1 2YX      -0.106000
     21 C12         -0.7060     1.1440   -11.4020 ca         1 2YX      -0.069500
     22 C10         -1.2860    -0.0650   -11.7920 ca         1 2YX       0.013000
     23 C11         -2.4690    -0.0690   -12.5970 cg         1 2YX       0.208800
     24 N4          -3.3980    -0.0790   -13.2520 n1         1 2YX      -0.299800
     25 C9          -0.7080    -1.2710   -11.3880 ca         1 2YX      -0.069500
     26 C8           0.4330    -1.2590   -10.6120 ca         1 2YX      -0.106000
     27 H1           1.3380    -0.0160     1.9730 hn         1 2YX       0.333500
     28 H2           3.9460     0.9360     2.6990 hn         1 2YX       0.500133
     29 H3           3.3280    -0.4020     3.0220 hn         1 2YX       0.500133
     30 H4           0.7190    -0.8980    -2.5610 ha         1 2YX       0.169000
     31 H5           5.0940    -0.4790    -2.5910 ha         1 2YX       0.187000
     32 H6           0.8140     0.2430    -5.1060 hn         1 2YX       0.325700
     33 H8           3.9080    -0.3330    -7.4980 hn         1 2YX       0.471800
     34 H9           1.9500     0.2040    -8.9440 h1         1 2YX       0.146700
     35 H10          1.1920     0.5800    -7.2970 h1         1 2YX       0.146700
     36 H11          1.6660    -0.6850   -10.0390 hc         1 2YX       0.144700
     37 H12          2.3890     0.7860   -10.0430 hc         1 2YX       0.144700
     38 H13          1.1740     1.6850   -10.0520 ha         1 2YX       0.166500
     39 H14         -1.2400     2.0790   -11.5230 ha         1 2YX       0.171000
     40 H15         -1.4920    -1.9240   -11.7510 ha         1 2YX       0.171000
     41 H16          0.9670    -2.1330   -10.2590 ha         1 2YX       0.166500
     42 HN3          3.7580    -0.6680     3.0670 hn         1 2YX       0.500133
@<TRIPOS>BOND
     1    24    23 3   
     2    23    22 1   
     3    22    25 ar  
     4    22    21 ar  
     5    25    26 ar  
     6    21    20 ar  
     7    26    19 ar  
     8    20    19 ar  
     9    19    18 1   
    10    18    17 1   
    11    17    16 1   
    12    16    14 1   
    13    14    15 2   
    14    14    13 1   
    15    15    11 1   
    16    13    10 1   
    17    11    10 ar  
    18    11    12 ar  
    19    10     9 ar  
    20    12     7 ar  
    21     9     6 ar  
    22     7     6 ar  
    23     7     8 1   
    24     6     2 1   
    25     8     4 2   
    26     2     1 2   
    27     2     3 1   
    28     4     3 1   
    29     4     5 1   
    30     3    27 1   
    31     5    28 1   
    32     5    29 1   
    33     9    30 1   
    34    12    31 1   
    35    13    32 1   
    36    16    33 1   
    37    17    34 1   
    38    17    35 1   
    39    18    36 1   
    40    18    37 1   
    41    20    38 1   
    42    21    39 1   
    43    25    40 1   
    44    26    41 1   
    45    42     5 1   
@<TRIPOS>SUBSTRUCTURE
     1 2YX         1 TEMP              0 ****  ****    0 ROOT
