@<TRIPOS>MOLECULE
2YX
   42    48     1     0     0
SMALL
bcc


@<TRIPOS>ATOM
      1 O            0.0000     0.0000     0.0000 o          1 2YX      -0.322000
      2 C17          1.2180     0.0000     0.0000 c2         1 2YX       0.270000
      3 N6           1.9180     0.0000     1.1570 ns         1 2YX       0.072000
      4 C            3.2830    -0.0010     1.1450 c2         1 2YX      -0.385000
      5 N            3.9480    -0.0010     2.3460 nz         1 2YX       0.555000
      6 C16          1.9780    -0.0070    -1.2550 ca         1 2YX      -0.157000
      7 C1           3.3940    -0.0070    -1.1790 ca         1 2YX      -0.095000
      8 N1           3.9870    -0.0020     0.0430 n2         1 2YX       0.129000
      9 C15          1.3390    -0.0120    -2.4950 ca         1 2YX      -0.004000
     10 C14          2.0940    -0.0190    -3.6490 ca         1 2YX      -0.237000
     11 C3           3.5030    -0.0200    -3.5840 ca         1 2YX      -0.046000
     12 C2           4.1470    -0.0130    -2.3470 ca         1 2YX       0.021000
     13 N5           1.7720    -0.0260    -5.0010 na         1 2YX       0.277000
     14 C4           2.9470    -0.0310    -5.6940 c2         1 2YX      -0.078000
     15 N2           3.9600    -0.0260    -4.8610 n2         1 2YX      -0.171000
     16 N3           3.0540    -0.0390    -7.0670 nu         1 2YX       0.152000
     17 C5           1.8460    -0.0430    -7.8950 c3         1 2YX      -0.399000
     18 C6           2.2410    -0.0530    -9.3730 DU         1 2YX      -0.023000
     19 C7           0.9980    -0.0570   -10.2250 c3         1 2YX      -0.232000
     20 C13          0.4300     1.1410   -10.6210 c2         1 2YX      -0.076000
     21 C12         -0.7060     1.1440   -11.4020 c2         1 2YX      -0.043500
     22 C10         -1.2860    -0.0650   -11.7920 c2         1 2YX       0.055000
     23 C11         -2.4690    -0.0690   -12.5970 c1         1 2YX      -0.137000
     24 N4          -3.3980    -0.0790   -13.2520 n1         1 2YX       0.009000
     25 C9          -0.7080    -1.2710   -11.3880 c2         1 2YX      -0.043500
     26 C8           0.4330    -1.2590   -10.6120 c2         1 2YX      -0.076000
     27 H1           1.3380    -0.0160     1.9730 hn         1 2YX       0.103000
     28 H2           3.9460     0.9360     2.6990 hn         1 2YX       0.069000
     29 H3           3.3280    -0.4020     3.0220 DU         1 2YX       0.155000
     30 H4           0.7190    -0.8980    -2.5610 ha         1 2YX       0.137000
     31 H5           5.0940    -0.4790    -2.5910 ha         1 2YX       0.147000
     32 H6           0.8140     0.2430    -5.1060 hn         1 2YX       0.111000
     33 H8           3.9080    -0.3330    -7.4980 hn         1 2YX       0.108000
     34 H9           1.9500     0.2040    -8.9440 DU         1 2YX       0.076000
     35 H10          1.1920     0.5800    -7.2970 h1         1 2YX       0.081000
     36 H11          1.6660    -0.6850   -10.0390 DU         1 2YX       0.258000
     37 H12          2.3890     0.7860   -10.0430 ha         1 2YX       0.045000
     38 H13          1.1740     1.6850   -10.0520 ha         1 2YX       0.135500
     39 H14         -1.2400     2.0790   -11.5230 ha         1 2YX       0.134500
     40 H15         -1.4920    -1.9240   -11.7510 ha         1 2YX       0.134500
     41 H16          0.9670    -2.1330   -10.2590 ha         1 2YX       0.135500
     42 HN3          3.7580    -0.6680     3.0670 DU         1 2YX       0.155000
@<TRIPOS>BOND
     1     1     2 1   
     2     2     3 1   
     3     2     6 1   
     4     3     4 1   
     5     3    27 1   
     6     4     5 1   
     7     4     8 1   
     8     5    28 1   
     9     5    29 1   
    10     5    42 1   
    11     6     7 1   
    12     6     9 1   
    13     7     8 1   
    14     7    12 1   
    15     9    10 1   
    16     9    30 1   
    17    10    11 1   
    18    10    13 1   
    19    11    12 1   
    20    11    15 1   
    21    12    31 1   
    22    13    14 1   
    23    13    32 1   
    24    14    15 1   
    25    14    16 1   
    26    16    17 1   
    27    16    33 1   
    28    17    18 1   
    29    17    34 1   
    30    17    35 1   
    31    18    19 1   
    32    18    34 1   
    33    18    36 1   
    34    18    37 1   
    35    19    20 1   
    36    19    26 1   
    37    19    36 1   
    38    20    21 1   
    39    20    38 1   
    40    21    22 1   
    41    21    39 1   
    42    22    23 1   
    43    22    25 1   
    44    23    24 1   
    45    25    26 1   
    46    25    40 1   
    47    26    41 1   
    48    29    42 1   
@<TRIPOS>SUBSTRUCTURE
     1 2YX         1 TEMP              0 ****  ****    0 ROOT
