@<TRIPOS>MOLECULE
2YY
   43    46     1     0     0
SMALL
bcc


@<TRIPOS>ATOM
      1 C1           0.0000     0.0000     0.0000 ca         1 2YY      -0.193600
      2 C2           1.3930     0.0000     0.0000 ca         1 2YY       0.023000
      3 C3           2.0740     0.0000     1.2000 ca         1 2YY      -0.252200
      4 C4           1.3680     0.0000     2.4230 ca         1 2YY       0.131400
      5 C5          -0.0260    -0.0010     2.4280 ca         1 2YY       0.023000
      6 C6          -0.7180     0.0050     1.2220 ca         1 2YY       0.030400
      7 C7          -0.7670    -0.0000    -1.2520 c          1 2YY       0.636100
      8 N8          -2.0760     0.0050     1.1890 nc         1 2YY      -0.342100
      9 C9          -2.7320     0.0100     0.0580 cd         1 2YY      -0.046200
     10 N10         -4.1040     0.0120     0.0980 nz         1 2YY       0.222400
     11 N11         -2.1170     0.0010    -1.1610 ns         1 2YY      -0.031400
     12 N12          3.4220     0.0000     1.5350 na         1 2YY       0.239700
     13 N13          2.2940     0.0000     3.4160 nc         1 2YY      -0.617100
     14 C14          3.4980     0.0000     2.8980 cd         1 2YY       0.383700
     15 N15          4.6700    -0.0000     3.6220 nu         1 2YY      -0.417200
     16 C16          5.9600     0.0000     2.9290 c3         1 2YY       0.136800
     17 C17          7.0920    -0.0010     3.9580 c3         1 2YY       0.046900
     18 O18         -0.2080     0.0010    -2.3340 o          1 2YY      -0.609500
     19 C19         10.8580    -0.0000     1.9340 ca         1 2YY      -0.083600
     20 C20         12.1560    -0.0000     1.2290 c          1 2YY       0.965200
     21 O21         12.7500    -1.1670     0.9090 o          1 2YY      -0.873300
     22 C22         10.2410     1.2080     2.2660 ca         1 2YY      -0.069000
     23 C23          9.0260     1.2000     2.9190 ca         1 2YY      -0.132500
     24 C24          8.4190    -0.0010     3.2450 ca         1 2YY      -0.159300
     25 C25          9.0260    -1.2000     2.9190 ca         1 2YY      -0.132500
     26 C26         10.2410    -1.2080     2.2650 ca         1 2YY      -0.069000
     27 O27         12.6890     1.0520     0.9360 o          1 2YY      -0.873300
     28 H1           1.9350    -0.1260    -0.9300 ha         1 2YY       0.136000
     29 H2          -0.5650     0.1080     3.3620 ha         1 2YY       0.128000
     30 H4          -4.4520    -0.8090    -0.3580 hn         1 2YY       0.209467
     31 H5          -4.4100     0.0180     1.0510 hn         1 2YY       0.209467
     32 H6           4.1930     0.0000     0.8970 hn         1 2YY       0.156700
     33 H8           4.6390    -0.0010     4.6220 hn         1 2YY       0.321800
     34 H9           6.0360    -0.8840     2.3080 h1         1 2YY       0.023700
     35 H10          6.0360     0.8850     2.3090 h1         1 2YY       0.023700
     36 H11          7.0160     0.8840     4.5790 hc         1 2YY       0.017200
     37 H12          7.0150    -0.8850     4.5780 hc         1 2YY       0.017200
     38 H13         10.7140     2.1480     2.0110 ha         1 2YY       0.130500
     39 H14          8.5460     2.1360     3.1770 ha         1 2YY       0.085000
     40 H15          8.5460    -2.1360     3.1770 ha         1 2YY       0.085000
     41 H16         10.7150    -2.1480     2.0100 ha         1 2YY       0.130500
     42 H3          -2.6700     0.0050    -1.9960 hn         1 2YY       0.178500
     43 H103        -4.4510     0.8260    -0.3690 hn         1 2YY       0.209467
@<TRIPOS>BOND
     1     1     2 ar  
     2     1     6 ar  
     3     1     7 1   
     4     2     3 ar  
     5     2    28 1   
     6     3     4 ar  
     7     3    12 1   
     8     4     5 ar  
     9     4    13 1   
    10     5     6 ar  
    11     5    29 1   
    12     6     8 1   
    13     7    11 1   
    14     7    18 2   
    15     8     9 2   
    16     9    10 1   
    17     9    11 1   
    18    10    30 1   
    19    10    31 1   
    20    10    43 1   
    21    11    42 1   
    22    12    14 1   
    23    12    32 1   
    24    13    14 2   
    25    14    15 1   
    26    15    16 1   
    27    15    33 1   
    28    16    17 1   
    29    16    34 1   
    30    16    35 1   
    31    17    24 1   
    32    17    36 1   
    33    17    37 1   
    34    19    20 1   
    35    19    22 ar  
    36    19    26 ar  
    37    20    21 1   
    38    20    27 1   
    39    22    23 ar  
    40    22    38 1   
    41    23    24 ar  
    42    23    39 1   
    43    24    25 ar  
    44    25    26 ar  
    45    25    40 1   
    46    26    41 1   
@<TRIPOS>SUBSTRUCTURE
     1 2YY         1 TEMP              0 ****  ****    0 ROOT
