@<TRIPOS>MOLECULE
molecule
   43    46     1     0     0
SMALL
bcc


@<TRIPOS>ATOM
      1 C1           0.0000     0.0000     0.0000 ca         1 2YY      -0.188600
      2 C2           1.3930     0.0000     0.0000 ca         1 2YY      -0.031000
      3 C3           2.0740     0.0000     1.2000 ca         1 2YY      -0.077200
      4 C4           1.3680     0.0000     2.4230 ca         1 2YY       0.169400
      5 C5          -0.0260    -0.0010     2.4280 ca         1 2YY      -0.033000
      6 C6          -0.7180     0.0050     1.2220 ca         1 2YY       0.114400
      7 C7          -0.7670    -0.0000    -1.2520 c          1 2YY       0.726100
      8 N8          -2.0760     0.0050     1.1890 nc         1 2YY      -0.533100
      9 C9          -2.7320     0.0100     0.0580 cd         1 2YY       0.422800
     10 N10         -4.1040     0.0120     0.0980 nz         1 2YY      -0.727600
     11 N11         -2.1170     0.0010    -1.1610 ns         1 2YY      -0.488400
     12 N12          3.4220     0.0000     1.5350 na         1 2YY      -0.283300
     13 N13          2.2940     0.0000     3.4160 nd         1 2YY      -0.682100
     14 C14          3.4980     0.0000     2.8980 cc         1 2YY       0.725700
     15 N15          4.6700    -0.0000     3.6220 nu         1 2YY      -0.846200
     16 C16          5.9600     0.0000     2.9290 c3         1 2YY       0.216800
     17 C17          7.0920    -0.0010     3.9580 c3         1 2YY      -0.031100
     18 O18         -0.2080     0.0010    -2.3340 o          1 2YY      -0.569500
     19 C19         10.8580    -0.0000     1.9340 ca         1 2YY      -0.083600
     20 C20         12.1560    -0.0000     1.2290 c          1 2YY       0.876200
     21 O21         12.7500    -1.1670     0.9090 o          1 2YY      -0.825800
     22 C22         10.2410     1.2080     2.2660 ca         1 2YY      -0.098500
     23 C23          9.0260     1.2000     2.9190 ca         1 2YY      -0.151500
     24 C24          8.4190    -0.0010     3.2450 ca         1 2YY      -0.144300
     25 C25          9.0260    -1.2000     2.9190 ca         1 2YY      -0.151500
     26 C26         10.2410    -1.2080     2.2650 ca         1 2YY      -0.098500
     27 O27         12.6890     1.0520     0.9360 o          1 2YY      -0.825800
     28 H1           1.9350    -0.1260    -0.9300 ha         1 2YY       0.170000
     29 H2          -0.5650     0.1080     3.3620 ha         1 2YY       0.169000
     30 H4          -4.4520    -0.8090    -0.3580 hn         1 2YY       0.469800
     31 H5          -4.4100     0.0180     1.0510 hn         1 2YY       0.469800
     32 H6           4.1930     0.0000     0.8970 hn         1 2YY       0.329700
     33 H8           4.6390    -0.0010     4.6220 hn         1 2YY       0.480800
     34 H9           6.0360    -0.8840     2.3080 h1         1 2YY       0.051700
     35 H10          6.0360     0.8850     2.3090 h1         1 2YY       0.051700
     36 H11          7.0160     0.8840     4.5790 hc         1 2YY       0.048700
     37 H12          7.0150    -0.8850     4.5780 hc         1 2YY       0.048700
     38 H13         10.7140     2.1480     2.0110 ha         1 2YY       0.157500
     39 H14          8.5460     2.1360     3.1770 ha         1 2YY       0.104500
     40 H15          8.5460    -2.1360     3.1770 ha         1 2YY       0.104500
     41 H16         10.7150    -2.1480     2.0100 ha         1 2YY       0.157500
     42 H3          -2.6700     0.0050    -1.9960 hn         1 2YY       0.334500
     43 H103        -4.4510     0.8260    -0.3690 hn         1 2YY       0.469800
@<TRIPOS>BOND
     1    21    20 1
     2    27    20 1
     3    20    19 1
     4    19    22 ar
     5    19    26 ar
     6    22    23 ar
     7    26    25 ar
     8    23    24 ar
     9    25    24 ar
    10    24    17 1
    11    17    16 1
    12    16    15 1
    13    15    14 1
    14    14    13 2
    15    14    12 1
    16    13     4 1
    17    12     3 1
    18     4     3 ar
    19     4     5 ar
    20     3     2 ar
    21     5     6 ar
    22     2     1 ar
    23     6     1 ar
    24     6     8 1
    25     1     7 1
    26     8     9 2
    27     7    18 2
    28     7    11 1
    29     9    11 1
    30     9    10 1
    31     2    28 1
    32     5    29 1
    33    10    30 1
    34    10    31 1
    35    12    32 1
    36    15    33 1
    37    16    34 1
    38    16    35 1
    39    17    36 1
    40    17    37 1
    41    22    38 1
    42    23    39 1
    43    25    40 1
    44    26    41 1
    45    11    42 1
    46    43    10 1
@<TRIPOS>SUBSTRUCTURE
     1 2YY         1 TEMP              0 ****  ****    0 ROOT
