@<TRIPOS>MOLECULE
molecule
   35    36     1     0     0
SMALL
bcc


@<TRIPOS>ATOM
      1 O1           0.0000     0.0000     0.0000 os         1 2YZ      -0.231900
      2 C2           1.4290     0.0000     0.0000 c3         1 2YZ       0.007400
      3 C3           1.9320     0.0000     1.4200 c          1 2YZ       0.893600
      4 O4           1.1470    -0.0000     2.3390 o          1 2YZ      -0.818300
      5 O6           3.2510    -0.0000     1.6660 o          1 2YZ      -0.818300
      6 C9          -0.6160     0.0010    -1.2080 ca         1 2YZ       0.240100
      7 C10         -2.0160     0.0060    -1.2850 ca         1 2YZ      -0.213600
      8 C11         -2.8250     0.0120    -0.0520 c          1 2YZ       0.663700
      9 N12         -4.1710     0.0160    -0.1300 ns         1 2YZ      -0.604900
     10 C14         -4.9760     0.0220     1.0950 c3         1 2YZ       0.163300
     11 C15         -6.4390     0.0270     0.7340 ca         1 2YZ      -0.104300
     12 C16         -7.1030     1.2270     0.5610 ca         1 2YZ      -0.113500
     13 C17         -8.4450     1.2320     0.2270 ca         1 2YZ      -0.136000
     14 C19         -9.1210     0.0370     0.0630 ca         1 2YZ      -0.131000
     15 C20         -8.4550    -1.1630     0.2360 ca         1 2YZ      -0.136000
     16 C21         -7.1150    -1.1670     0.5710 ca         1 2YZ      -0.113500
     17 O28         -2.2790     0.0110     1.0340 o          1 2YZ      -0.539100
     18 C29         -2.6400     0.0060    -2.5350 ca         1 2YZ      -0.052000
     19 C31         -1.8800     0.0010    -3.6830 ca         1 2YZ      -0.250000
     20 C33         -0.4950    -0.0030    -3.6050 ca         1 2YZ       0.183900
     21 F34          0.2430    -0.0080    -4.7360 f          1 2YZ      -0.151900
     22 C35          0.1360     0.0010    -2.3720 ca         1 2YZ      -0.285000
     23 H1           1.7900     0.8850    -0.5110 h1         1 2YZ       0.028700
     24 H2           1.7900    -0.8850    -0.5110 h1         1 2YZ       0.028700
     25 H4          -4.6210    -0.0140    -1.0240 hn         1 2YZ       0.305500
     26 H5          -4.7510    -0.8630     1.6780 h1         1 2YZ       0.059700
     27 H6          -4.7440     0.9060     1.6760 h1         1 2YZ       0.059700
     28 H7          -6.5730     2.1630     0.6900 ha         1 2YZ       0.138000
     29 H8          -8.9660     2.1720     0.0910 ha         1 2YZ       0.125000
     30 H9         -10.1720     0.0410    -0.2000 ha         1 2YZ       0.122000
     31 H10         -8.9840    -2.0990     0.1080 ha         1 2YZ       0.125000
     32 H11         -6.5940    -2.1070     0.7070 ha         1 2YZ       0.138000
     33 H12         -3.7220     0.0100    -2.6020 ha         1 2YZ       0.121000
     34 H13         -2.3650     0.0020    -4.6520 ha         1 2YZ       0.129000
     35 H14          1.2180    -0.0030    -2.3170 ha         1 2YZ       0.166000
@<TRIPOS>BOND
     1    13    14 ar  
     2    13    12 ar  
     3    14    15 ar  
     4    12    11 ar  
     5    15    16 ar  
     6    11    16 ar  
     7    11    10 1   
     8    10     9 1   
     9    17     8 2   
    10     9     8 1   
    11     8     7 1   
    12    18     7 ar  
    13    18    19 ar  
    14     7     6 ar  
    15    19    20 ar  
    16     4     3 1   
    17     6     1 1   
    18     6    22 ar  
    19     1     2 1   
    20    20    22 ar  
    21    20    21 1   
    22     3     2 1   
    23     3     5 1   
    24     2    23 1   
    25     2    24 1   
    26     9    25 1   
    27    10    26 1   
    28    10    27 1   
    29    12    28 1   
    30    13    29 1   
    31    14    30 1   
    32    15    31 1   
    33    16    32 1   
    34    18    33 1   
    35    19    34 1   
    36    22    35 1   
@<TRIPOS>SUBSTRUCTURE
     1 2YZ         1 TEMP              0 ****  ****    0 ROOT
