@<TRIPOS>MOLECULE
2ZE
   58    61     1     0     0
SMALL
bcc


@<TRIPOS>ATOM
      1 OAC         0.0400   -0.1200   -0.1830 oh        1 2ZE     -0.607800
      2 CAV         1.4340   -0.3090   -0.0540 c3        1 2ZE      0.142400
      3 CAN         1.9210   -0.1460    1.4070 c3        1 2ZE     -0.070000
      4 CAW         1.4060   -1.3450    2.1860 c3        1 2ZE     -0.091100
      5 CAT         1.2770    1.1320    1.9930 c3        1 2ZE      0.142100
      6 OAB         1.3610    2.1410    0.9860 oh        1 2ZE     -0.618800
      7 CAU         1.9050    1.5830    3.3040 c3        1 2ZE     -0.107400
      8 CAQ         3.4080    1.7120    3.2080 c3        1 2ZE     -0.073400
      9 CAF         4.0910    0.4270    2.7300 c3        1 2ZE     -0.011000
     10 CAS         3.9120   -0.6540    3.7940 c3        1 2ZE     -0.091100
     11 CAH         3.4520    0.0170    1.3770 c3        1 2ZE     -0.049700
     12 CAO         4.1470   -1.1720    0.7200 c3        1 2ZE     -0.072400
     13 CAM         5.6540   -0.9930    0.5970 c3        1 2ZE     -0.065400
     14 CAG         6.2060   -0.6490    1.9560 c3        1 2ZE     -0.068700
     15 CAK         7.7170   -0.5140    2.1360 c3        1 2ZE     -0.074400
     16 CAJ         7.9130    0.7090    3.0510 c3        1 2ZE     -0.055700
     17 CAI         6.5270    0.9660    3.6760 c3        1 2ZE     -0.068400
     18 CAE         5.6000    0.6800    2.4740 c3        1 2ZE     -0.040000
     19 CAL         5.8280    1.8750    1.5280 c3        1 2ZE     -0.064400
     20 CAR         7.2610    2.0980    1.0800 c3        1 2ZE     -0.094400
     21 CAP         8.2840    1.9400    2.2090 c3        1 2ZE      0.160800
     22 OAA         8.2570    3.0640    3.0870 oh        1 2ZE     -0.599800
     23 CAX         9.7100    1.8100    1.6390 c3        1 2ZE      0.100400
     24 OAD        10.0170    3.0550    1.0280 oh        1 2ZE     -0.612800
     25 H1         -0.1310    0.8270   -0.0880 ho        1 2ZE      0.411000
     26 H2          1.6030   -1.3650   -0.3970 h1        1 2ZE      0.048200
     27 H3          1.9830    0.4060   -0.7220 h1        1 2ZE      0.048200
     28 H4          0.3350   -1.5260    1.9120 hc        1 2ZE      0.041700
     29 H5          1.9910   -2.2610    1.9320 hc        1 2ZE      0.041700
     30 H6          1.4590   -1.1790    3.2870 hc        1 2ZE      0.041700
     31 H7          0.1790    0.9260    2.1690 h1        1 2ZE      0.041700
     32 H8          1.2720    2.9950    1.4230 ho        1 2ZE      0.405000
     33 H9          1.4730    2.5800    3.5910 hc        1 2ZE      0.047200
     34 H10         1.6100    0.8620    4.1100 hc        1 2ZE      0.047200
     35 H11         3.6210    2.5440    2.4850 hc        1 2ZE      0.048200
     36 H12         3.8330    2.0000    4.2040 hc        1 2ZE      0.048200
     37 H13         3.0060   -0.4680    4.4180 hc        1 2ZE      0.036033
     38 H14         3.8030   -1.6620    3.3250 hc        1 2ZE      0.036033
     39 H15         4.7760   -0.6950    4.4980 hc        1 2ZE      0.036033
     40 H16         3.6020    0.9030    0.6870 hc        1 2ZE      0.059700
     41 H17         3.9410   -2.1100    1.2990 hc        1 2ZE      0.040700
     42 H18         3.7260   -1.3190   -0.3100 hc        1 2ZE      0.040700
     43 H19         6.1130   -1.9430    0.2200 hc        1 2ZE      0.041700
     44 H20         5.8910   -0.1880   -0.1450 hc        1 2ZE      0.041700
     45 H21         5.8830   -1.4730    2.6580 hc        1 2ZE      0.049700
     46 H22         8.2390   -0.4020    1.1570 hc        1 2ZE      0.042200
     47 H23         8.1300   -1.4280    2.6310 hc        1 2ZE      0.042200
     48 H24         8.6880    0.5300    3.8330 hc        1 2ZE      0.062700
     49 H25         6.4250    2.0120    4.0510 hc        1 2ZE      0.057700
     50 H26         6.3640    0.2670    4.5290 hc        1 2ZE      0.057700
     51 H27         5.5040    2.8040    2.0720 hc        1 2ZE      0.045700
     52 H28         5.2040    1.7850    0.6030 hc        1 2ZE      0.045700
     53 H29         7.3560    3.1320    0.6540 hc        1 2ZE      0.049200
     54 H30         7.5170    1.3790    0.2580 hc        1 2ZE      0.049200
     55 H31         8.5340    3.8280    2.5640 ho        1 2ZE      0.416000
     56 H32         9.7690    0.9920    0.8760 h1        1 2ZE      0.034700
     57 H33        10.4290    1.6000    2.4750 h1        1 2ZE      0.034700
     58 H34        10.9600    3.0410    0.8300 ho        1 2ZE      0.407000
@<TRIPOS>BOND
     1    1    2 1   
     2    1   25 1   
     3    2    3 1   
     4    2   26 1   
     5    2   27 1   
     6    3    4 1   
     7    3    5 1   
     8    3   11 1   
     9    4   28 1   
    10    4   29 1   
    11    4   30 1   
    12    5    6 1   
    13    5    7 1   
    14    5   31 1   
    15    6   32 1   
    16    7    8 1   
    17    7   33 1   
    18    7   34 1   
    19    8    9 1   
    20    8   35 1   
    21    8   36 1   
    22    9   10 1   
    23    9   11 1   
    24    9   18 1   
    25   10   37 1   
    26   10   38 1   
    27   10   39 1   
    28   11   12 1   
    29   11   40 1   
    30   12   13 1   
    31   12   41 1   
    32   12   42 1   
    33   13   14 1   
    34   13   43 1   
    35   13   44 1   
    36   14   15 1   
    37   14   18 1   
    38   14   45 1   
    39   15   16 1   
    40   15   46 1   
    41   15   47 1   
    42   16   17 1   
    43   16   21 1   
    44   16   48 1   
    45   17   18 1   
    46   17   49 1   
    47   17   50 1   
    48   18   19 1   
    49   19   20 1   
    50   19   51 1   
    51   19   52 1   
    52   20   21 1   
    53   20   53 1   
    54   20   54 1   
    55   21   22 1   
    56   21   23 1   
    57   22   55 1   
    58   23   24 1   
    59   23   56 1   
    60   23   57 1   
    61   24   58 1   
@<TRIPOS>SUBSTRUCTURE
     1 2ZE         1 TEMP              0 ****  ****    0 ROOT
