@<TRIPOS>MOLECULE
molecule
   33    35     1     0     0
SMALL
bcc


@<TRIPOS>ATOM
      1 N1           0.0000     0.0000     0.0000 ns         1 2ZI      -0.477400
      2 C2           1.3680     0.0000     0.0000 cc         1 2ZI       0.505500
      3 N3           2.0820     0.0000     1.0970 nd         1 2ZI      -0.642100
      4 C4           1.5060     0.0000     2.3150 ca         1 2ZI       0.205400
      5 C5           0.0960     0.0000     2.4130 ca         1 2ZI      -0.199600
      6 C6          -0.6860     0.0000     1.1670 c          1 2ZI       0.735100
      7 O6          -1.9030     0.0000     1.1850 o          1 2ZI      -0.615500
      8 FAB          4.9090    -1.3480    -5.1160 f          1 2ZI      -0.215300
      9 FAC          5.0530     0.9170    -4.9070 f          1 2ZI      -0.215300
     10 FAD          3.2480    -0.2860    -5.9890 f          1 2ZI      -0.215300
     11 CAE          3.4670     0.0010    -1.3400 ca         1 2ZI      -0.102500
     12 CAF          1.3450    -0.0010    -2.4910 ca         1 2ZI      -0.102500
     13 CAG          4.1200     0.0000    -2.5560 ca         1 2ZI      -0.080000
     14 CAH          2.0100    -0.0010    -3.7000 ca         1 2ZI      -0.080000
     15 CAJ          2.2720    -0.0000     3.4840 ca         1 2ZI      -0.061300
     16 CAK         -0.5170    -0.0000     3.6640 ca         1 2ZI      -0.055000
     17 CAP          2.0730     0.0000    -1.2990 ca         1 2ZI      -0.132900
     18 CAQ          3.3930     0.0000    -3.7340 ca         1 2ZI      -0.192300
     19 CAU          4.1050     0.0250    -5.0620 c3         1 2ZI       0.690200
     20 CAC          1.6460    -0.0010     4.7100 ca         1 2ZI      -0.106000
     21 CAD          0.2600    -0.0000     4.8020 ca         1 2ZI      -0.154000
     22 H1          -0.1720     0.0430    -0.9850 hn         1 2ZI       0.347500
     23 HAK         -1.6000    -0.0270     3.6830 ha         1 2ZI       0.157000
     24 HAE          3.8440     0.1330    -0.3330 ha         1 2ZI       0.159000
     25 HAG          5.2010    -0.0550    -2.5640 ha         1 2ZI       0.156000
     26 HAF          0.2630    -0.0010    -2.4550 ha         1 2ZI       0.159000
     27 HAH          1.5930    -0.2050    -4.6790 ha         1 2ZI       0.156000
     28 HAI1         4.4860    -0.2460     3.3570 hc         1 2ZI       0.043367
     29 HAI2         3.8950     0.7410     4.6400 hc         1 2ZI       0.043367
     30 HAI3         3.8430     1.4160     3.0380 hc         1 2ZI       0.043367
     31 HAC          2.0620     0.2780     5.6710 ha         1 2ZI       0.139000
     32 HAD         -0.1350     0.1260     5.8020 ha         1 2ZI       0.137000
     33 CAI          3.7330     0.4950     3.5970 c3         1 2ZI      -0.030800
@<TRIPOS>BOND
     1     1     2 1   
     2     1     6 1   
     3     2     3 2   
     4     2    17 1   
     5     3     4 1   
     6     4     5 ar  
     7     4    15 ar  
     8     5     6 1   
     9     5    16 ar  
    10     6     7 2   
    11     8    19 1   
    12     9    19 1   
    13    10    19 1   
    14    11    13 ar  
    15    11    17 ar  
    16    12    14 ar  
    17    12    17 ar  
    18    13    18 ar  
    19    14    18 ar  
    20    33    15 1   
    21    15    20 ar  
    22    16    21 ar  
    23    18    19 1   
    24    20    21 ar  
    25     1    22 1   
    26    16    23 1   
    27    11    24 1   
    28    13    25 1   
    29    12    26 1   
    30    14    27 1   
    31    33    28 1   
    32    33    29 1   
    33    33    30 1   
    34    20    31 1   
    35    21    32 1   
@<TRIPOS>SUBSTRUCTURE
     1 2ZI         1 TEMP              0 ****  ****    0 ROOT
