@<TRIPOS>MOLECULE
molecule
   44    45     1     0     0
SMALL
bcc


@<TRIPOS>ATOM
      1 C1           0.0000     0.0000     0.0000 c          1 2ZL       0.643100
      2 C6           2.0170     0.0000     1.4430 c3         1 2ZL      -0.116100
      3 C13          4.3700    -1.3740    -2.9600 ca         1 2ZL      -0.112500
      4 C14          5.5230    -0.7820    -3.4390 ca         1 2ZL      -0.131000
      5 C2           1.5070     0.0000     0.0000 c3         1 2ZL       0.178500
      6 N3          -0.6730     1.1410     0.2470 ns         1 2ZL      -0.471400
      7 O4          -0.6060    -1.0250    -0.2270 o          1 2ZL      -0.565100
      8 O5          -2.0890     1.1440     0.2410 oh         1 2ZL      -0.362100
      9 N7           1.9950    -1.1970    -0.6910 n3         1 2ZL      -0.784500
     10 S8           2.5370    -2.4930     0.1850 sy         1 2ZL       1.434200
     11 O9           3.2290    -3.3330    -0.7310 o          1 2ZL      -0.642800
     12 O10          3.1370    -1.9640     1.3580 o          1 2ZL      -0.642800
     13 C11          2.0030    -1.2450    -2.1540 c3         1 2ZL       0.286100
     14 C12          3.2630    -0.5990    -2.6720 ca         1 2ZL      -0.121300
     15 C15          5.5710     0.5860    -3.6260 ca         1 2ZL      -0.121000
     16 C16          4.4660     1.3630    -3.3320 ca         1 2ZL      -0.131000
     17 C17          3.3110     0.7700    -2.8580 ca         1 2ZL      -0.112500
     18 C18          1.1190    -3.3960     0.7140 ca         1 2ZL      -0.312500
     19 C19          0.5160    -3.0890     1.9190 ca         1 2ZL       0.000000
     20 C20         -0.5960    -3.7970     2.3350 ca         1 2ZL      -0.134300
     21 C21         -1.1060    -4.8110     1.5430 ca         1 2ZL       0.187900
     22 C22         -0.5010    -5.1180     0.3370 ca         1 2ZL      -0.183000
     23 C23          0.6090    -4.4060    -0.0800 ca         1 2ZL       0.000000
     24 F24         -2.1940    -5.5030     1.9490 f          1 2ZL      -0.135900
     25 C25         -1.2530    -3.4630     3.6490 c3         1 2ZL      -0.043800
     26 H1           1.7080     0.9140     1.9350 hc         1 2ZL       0.066367
     27 H2           3.0980    -0.0630     1.4440 hc         1 2ZL       0.066367
     28 H3           1.6050    -0.8510     1.9720 hc         1 2ZL       0.066367
     29 H5           6.3890    -1.3910    -3.6670 ha         1 2ZL       0.131000
     30 H6           1.8680     0.8850    -0.5110 h1         1 2ZL       0.071700
     31 H7          -0.1720     1.9920     0.4090 hn         1 2ZL       0.319500
     32 H8          -2.4020     2.0320     0.2880 ho         1 2ZL       0.399000
     33 H9           1.1400    -0.7130    -2.5380 h1         1 2ZL       0.069200
     34 H10          1.9650    -2.2770    -2.4820 h1         1 2ZL       0.069200
     35 H11          6.4760     1.0500    -3.9990 ha         1 2ZL       0.130000
     36 H12          4.5040     2.4360    -3.4790 ha         1 2ZL       0.131000
     37 H13          2.4440     1.3780    -2.6300 ha         1 2ZL       0.139000
     38 H14          0.9160    -2.2950     2.5380 ha         1 2ZL       0.150000
     39 H15         -0.9010    -5.9100    -0.2840 ha         1 2ZL       0.149000
     40 H16          1.0830    -4.6450    -1.0240 ha         1 2ZL       0.151000
     41 H17         -1.3460    -4.3620     4.2460 hc         1 2ZL       0.048700
     42 H18         -2.2370    -3.0490     3.4650 hc         1 2ZL       0.048700
     43 H19         -0.6500    -2.7370     4.1810 hc         1 2ZL       0.048700
     44 H4           4.3320    -2.4470    -2.8140 ha         1 2ZL       0.139000
@<TRIPOS>BOND
     1    16    15 ar  
     2    16    17 ar  
     3    15     4 ar  
     4    17    14 ar  
     5    11    10 2   
     6     4     3 ar  
     7    12    10 2   
     8     2     5 1   
     9    14     3 ar  
    10    14    13 1   
    11    10     9 1   
    12    10    18 1   
    13     5     9 1   
    14     5     1 1   
    15     9    13 1   
    16     1     6 1   
    17     1     7 2   
    18    18    23 ar  
    19    18    19 ar  
    20     6     8 1   
    21    23    22 ar  
    22    19    20 ar  
    23    22    21 ar  
    24    20    21 ar  
    25    20    25 1   
    26    21    24 1   
    27     2    26 1   
    28     2    27 1   
    29     2    28 1   
    30     3    44 1   
    31     4    29 1   
    32     5    30 1   
    33     6    31 1   
    34     8    32 1   
    35    13    33 1   
    36    13    34 1   
    37    15    35 1   
    38    16    36 1   
    39    17    37 1   
    40    19    38 1   
    41    22    39 1   
    42    23    40 1   
    43    25    41 1   
    44    25    42 1   
    45    25    43 1   
@<TRIPOS>SUBSTRUCTURE
     1 2ZL         1 TEMP              0 ****  ****    0 ROOT
