@<TRIPOS>MOLECULE
2ZL
   44    45     1     0     0
SMALL
bcc


@<TRIPOS>ATOM
      1 C1           0.0000     0.0000     0.0000 c          1 2ZL       0.542100
      2 C6           2.0170     0.0000     1.4430 c3         1 2ZL      -0.061100
      3 C13          4.3700    -1.3740    -2.9600 ca         1 2ZL      -0.085000
      4 C14          5.5230    -0.7820    -3.4390 ca         1 2ZL      -0.105000
      5 C2           1.5070     0.0000     0.0000 c3         1 2ZL       0.143500
      6 N3          -0.6730     1.1410     0.2470 ns         1 2ZL      -0.053400
      7 O4          -0.6060    -1.0250    -0.2270 o          1 2ZL      -0.619100
      8 O5          -2.0890     1.1440     0.2410 oh         1 2ZL      -0.439100
      9 N7           1.9950    -1.1970    -0.6910 n3         1 2ZL      -0.484500
     10 S8           2.5370    -2.4930     0.1850 sy         1 2ZL       1.056200
     11 O9           3.2290    -3.3330    -0.7310 o          1 2ZL      -0.596300
     12 O10          3.1370    -1.9640     1.3580 o          1 2ZL      -0.596300
     13 C11          2.0030    -1.2450    -2.1540 c3         1 2ZL       0.295100
     14 C12          3.2630    -0.5990    -2.6720 ca         1 2ZL      -0.132300
     15 C15          5.5710     0.5860    -3.6260 ca         1 2ZL      -0.095000
     16 C16          4.4660     1.3630    -3.3320 ca         1 2ZL      -0.105000
     17 C17          3.3110     0.7700    -2.8580 ca         1 2ZL      -0.085000
     18 C18          1.1190    -3.3960     0.7140 ca         1 2ZL      -0.147500
     19 C19          0.5160    -3.0890     1.9190 ca         1 2ZL       0.026000
     20 C20         -0.5960    -3.7970     2.3350 ca         1 2ZL      -0.142300
     21 C21         -1.1060    -4.8110     1.5430 ca         1 2ZL       0.156900
     22 C22         -0.5010    -5.1180     0.3370 ca         1 2ZL      -0.156000
     23 C23          0.6090    -4.4060    -0.0800 ca         1 2ZL       0.032000
     24 F24         -2.1940    -5.5030     1.9490 f          1 2ZL      -0.126900
     25 C25         -1.2530    -3.4630     3.6490 c3         1 2ZL       0.071200
     26 H1           1.7080     0.9140     1.9350 hc         1 2ZL       0.040367
     27 H2           3.0980    -0.0630     1.4440 hc         1 2ZL       0.040367
     28 H3           1.6050    -0.8510     1.9720 hc         1 2ZL       0.040367
     29 H5           6.3890    -1.3910    -3.6670 ha         1 2ZL       0.102500
     30 H6           1.8680     0.8850    -0.5110 h1         1 2ZL       0.033700
     31 H7          -0.1720     1.9920     0.4090 hn         1 2ZL       0.156500
     32 H8          -2.4020     2.0320     0.2880 ho         1 2ZL       0.393000
     33 H9           1.1400    -0.7130    -2.5380 h1         1 2ZL       0.029700
     34 H10          1.9650    -2.2770    -2.4820 h1         1 2ZL       0.029700
     35 H11          6.4760     1.0500    -3.9990 ha         1 2ZL       0.101000
     36 H12          4.5040     2.4360    -3.4790 ha         1 2ZL       0.102500
     37 H13          2.4440     1.3780    -2.6300 ha         1 2ZL       0.115000
     38 H14          0.9160    -2.2950     2.5380 ha         1 2ZL       0.128000
     39 H15         -0.9010    -5.9100    -0.2840 ha         1 2ZL       0.122000
     40 H16          1.0830    -4.6450    -1.0240 ha         1 2ZL       0.121000
     41 H17         -1.3460    -4.3620     4.2460 hc         1 2ZL       0.012033
     42 H18         -2.2370    -3.0490     3.4650 hc         1 2ZL       0.012033
     43 H19         -0.6500    -2.7370     4.1810 hc         1 2ZL       0.012033
     44 H4           4.3320    -2.4470    -2.8140 ha         1 2ZL       0.115000
@<TRIPOS>BOND
     1     1     5 1   
     2     1     6 1   
     3     1     7 2   
     4     2     5 1   
     5     2    26 1   
     6     2    27 1   
     7     2    28 1   
     8     3     4 ar  
     9     3    14 ar  
    10     3    44 1   
    11     4    15 ar  
    12     4    29 1   
    13     5     9 1   
    14     5    30 1   
    15     6     8 1   
    16     6    31 1   
    17     8    32 1   
    18     9    10 1   
    19     9    13 1   
    20    10    11 2   
    21    10    12 2   
    22    10    18 1   
    23    13    14 1   
    24    13    33 1   
    25    13    34 1   
    26    14    17 ar  
    27    15    16 ar  
    28    15    35 1   
    29    16    17 ar  
    30    16    36 1   
    31    17    37 1   
    32    18    19 ar  
    33    18    23 ar  
    34    19    20 ar  
    35    19    38 1   
    36    20    21 ar  
    37    20    25 1   
    38    21    22 ar  
    39    21    24 1   
    40    22    23 ar  
    41    22    39 1   
    42    23    40 1   
    43    25    41 1   
    44    25    42 1   
    45    25    43 1   
@<TRIPOS>SUBSTRUCTURE
     1 2ZL         1 TEMP              0 ****  ****    0 ROOT
