@<TRIPOS>MOLECULE
molecule
   17    18     1     0     0
SMALL
bcc


@<TRIPOS>ATOM
      1 O1           0.0000     0.0000     0.0000 o          1 2ZM      -0.206000
      2 N2           1.2170     0.0000     0.0000 no         1 2ZM       0.298200
      3 O3           1.8270     0.0000     1.0550 o          1 2ZM      -0.206000
      4 C4           1.9580    -0.0050    -1.2820 ca         1 2ZM      -0.171200
      5 C5           3.3460    -0.0100    -1.2730 ca         1 2ZM      -0.071000
      6 C6           4.0510    -0.0160    -2.4570 ca         1 2ZM      -0.128000
      7 C7           3.3670    -0.0160    -3.6660 ca         1 2ZM      -0.069200
      8 N8           3.7560    -0.0140    -4.9910 na         1 2ZM      -0.264300
      9 C9           2.6230    -0.0080    -5.7440 cc         1 2ZM       0.438700
     10 N10          1.5740    -0.0060    -4.9750 nd         1 2ZM      -0.586100
     11 C11          1.9620    -0.0100    -3.6740 ca         1 2ZM       0.081400
     12 C12          1.2680    -0.0100    -2.4610 ca         1 2ZM      -0.002000
     13 H1           3.8780    -0.0100    -0.3300 ha         1 2ZM       0.169000
     14 H2           5.1340    -0.0200    -2.4450 ha         1 2ZM       0.143000
     15 H3           4.6970    -0.0170    -5.3330 hn         1 2ZM       0.311700
     16 H4           2.5990    -0.0050    -6.8270 h5         1 2ZM       0.082800
     17 H6           0.1870    -0.0830    -2.4560 ha         1 2ZM       0.179000
@<TRIPOS>BOND
     1     9     8 1   
     2     9    10 2   
     3     8     7 1   
     4    10    11 1   
     5     7    11 ar  
     6     7     6 ar  
     7    11    12 ar  
     8     6     5 ar  
     9    12     4 ar  
    10     5     4 ar  
    11     4     2 1   
    12     2     3 1   
    13     2     1 1   
    14     5    13 1   
    15     6    14 1   
    16     8    15 1   
    17     9    16 1   
    18    12    17 1   
@<TRIPOS>SUBSTRUCTURE
     1 2ZM         1 TEMP              0 ****  ****    0 ROOT
