@<TRIPOS>MOLECULE
2ZM
   17    18     1     0     0
SMALL
bcc


@<TRIPOS>ATOM
      1 O1           0.0000     0.0000     0.0000 o          1 2ZM      -0.452000
      2 N2           1.2170     0.0000     0.0000 no         1 2ZM       1.051200
      3 O3           1.8270     0.0000     1.0550 o          1 2ZM      -0.452000
      4 C4           1.9580    -0.0050    -1.2820 ca         1 2ZM      -0.465200
      5 C5           3.3460    -0.0100    -1.2730 ca         1 2ZM      -0.024000
      6 C6           4.0510    -0.0160    -2.4570 ca         1 2ZM      -0.095000
      7 C7           3.3670    -0.0160    -3.6660 ca         1 2ZM      -0.241200
      8 N8           3.7560    -0.0140    -4.9910 na         1 2ZM       0.265700
      9 C9           2.6230    -0.0080    -5.7440 cc         1 2ZM       0.250700
     10 N10          1.5740    -0.0060    -4.9750 nd         1 2ZM      -0.496100
     11 C11          1.9620    -0.0100    -3.6740 ca         1 2ZM       0.036400
     12 C12          1.2680    -0.0100    -2.4610 ca         1 2ZM       0.071000
     13 H1           3.8780    -0.0100    -0.3300 ha         1 2ZM       0.134000
     14 H2           5.1340    -0.0200    -2.4450 ha         1 2ZM       0.111000
     15 H3           4.6970    -0.0170    -5.3330 hn         1 2ZM       0.133700
     16 H4           2.5990    -0.0050    -6.8270 h5         1 2ZM       0.032800
     17 H6           0.1870    -0.0830    -2.4560 ha         1 2ZM       0.139000
@<TRIPOS>BOND
     1     1     2 1   
     2     2     3 1   
     3     2     4 1   
     4     4     5 ar  
     5     4    12 ar  
     6     5     6 ar  
     7     5    13 1   
     8     6     7 ar  
     9     6    14 1   
    10     7     8 1   
    11     7    11 ar  
    12     8     9 1   
    13     8    15 1   
    14     9    10 2   
    15     9    16 1   
    16    10    11 1   
    17    11    12 ar  
    18    12    17 1   
@<TRIPOS>SUBSTRUCTURE
     1 2ZM         1 TEMP              0 ****  ****    0 ROOT
