@<TRIPOS>MOLECULE
molecule
   25    24     1     0     0
SMALL
bcc


@<TRIPOS>ATOM
      1 O            0.0000     0.0000     0.0000 o          1 2ZO      -0.471100
      2 C4           1.2080     0.0000     0.0000 c          1 2ZO       0.559900
      3 C3           1.9620     0.0000     1.3040 c3         1 2ZO      -0.202400
      4 C2           2.9340    -1.1820     1.3320 c3         1 2ZO      -0.103400
      5 C1           3.6990    -1.1810     2.6560 c3         1 2ZO       0.104800
      6 N            4.6320    -2.3160     2.6830 n4         1 2ZO      -0.577800
      7 C7           5.5810    -2.1940     1.5690 c3         1 2ZO       0.093100
      8 C6           5.3670    -2.3160     3.9550 c3         1 2ZO       0.093100
      9 C5           3.8810    -3.5710     2.5510 c3         1 2ZO       0.093100
     10 H1           1.7490     0.0320    -0.9380 h4         1 2ZO       0.012200
     11 H2           2.5160     0.9260     1.4010 hc         1 2ZO       0.081700
     12 H3           1.2620    -0.0890     2.1260 hc         1 2ZO       0.081700
     13 H4           3.6340    -1.0920     0.5100 hc         1 2ZO       0.064700
     14 H5           2.3800    -2.1070     1.2350 hc         1 2ZO       0.064700
     15 H6           4.2540    -0.2550     2.7530 hx         1 2ZO       0.103700
     16 H7           2.9990    -1.2700     3.4780 hx         1 2ZO       0.103700
     17 H8           6.4530    -2.8060     1.7690 hx         1 2ZO       0.099811
     18 H9           5.8830    -1.1590     1.4630 hx         1 2ZO       0.099811
     19 H10          5.1080    -2.5280     0.6540 hx         1 2ZO       0.099811
     20 H11          6.0570    -3.1500     3.9740 hx         1 2ZO       0.099811
     21 H12          4.6670    -2.4080     4.7770 hx         1 2ZO       0.099811
     22 H13          5.9190    -1.3890     4.0530 hx         1 2ZO       0.099811
     23 H14          4.4800    -4.3910     2.9290 hx         1 2ZO       0.099811
     24 H15          3.6480    -3.7450     1.5080 hx         1 2ZO       0.099811
     25 H16          2.9620    -3.5030     3.1200 hx         1 2ZO       0.099811
@<TRIPOS>BOND
     1     1     2 2   
     2     2     3 1   
     3     3     4 1   
     4     4     5 1   
     5     5     6 1   
     6     6     7 1   
     7     6     8 1   
     8     6     9 1   
     9     2    10 1   
    10     3    11 1   
    11     3    12 1   
    12     4    13 1   
    13     4    14 1   
    14     5    15 1   
    15     5    16 1   
    16     7    17 1   
    17     7    18 1   
    18     7    19 1   
    19     8    20 1   
    20     8    21 1   
    21     8    22 1   
    22     9    23 1   
    23     9    24 1   
    24     9    25 1   
@<TRIPOS>SUBSTRUCTURE
     1 2ZO         1 TEMP              0 ****  ****    0 ROOT
