@<TRIPOS>MOLECULE
molecule
   19    20     1     0     0
SMALL
bcc


@<TRIPOS>ATOM
      1 C1           0.0000     0.0000     0.0000 ca         1 2ZQ       0.447600
      2 C2           1.4180     0.0000     0.0000 ca         1 2ZQ      -0.167300
      3 C3          -0.6830    -0.0060     1.2290 ca         1 2ZQ      -0.200500
      4 C4           2.1100     0.0000     1.2220 ca         1 2ZQ      -0.064000
      5 C5           0.0200    -0.0050     2.3930 ca         1 2ZQ      -0.042000
      6 C6           1.4140     0.0000     2.3910 ca         1 2ZQ      -0.147000
      7 C7          -0.0310    -0.0020    -2.3080 ca         1 2ZQ       0.452200
      8 C8           1.3610    -0.0000    -2.3780 ca         1 2ZQ      -0.253300
      9 N9          -0.6640    -0.0020    -1.1600 nb         1 2ZQ      -0.651000
     10 C10          2.1000    -0.0000    -1.2300 ca         1 2ZQ      -0.071000
     11 N11         -2.1640    -0.0120     1.2550 no         1 2ZQ       0.295200
     12 O12         -2.7910    -0.0120     0.2110 o          1 2ZQ      -0.193000
     13 O13         -2.7540    -0.0170     2.3200 o          1 2ZQ      -0.193000
     14 H1           3.1940     0.0040     1.2340 ha         1 2ZQ       0.143000
     15 H2          -0.5120    -0.0050     3.3370 ha         1 2ZQ       0.170000
     16 H3           1.9490     0.0010     3.3330 ha         1 2ZQ       0.148000
     17 H4          -0.6050    -0.0020    -3.2260 h4         1 2ZQ       0.034100
     18 H5           1.8560    -0.0010    -3.3420 ha         1 2ZQ       0.145000
     19 H6           3.1830     0.0010    -1.2650 ha         1 2ZQ       0.145000
@<TRIPOS>BOND
     1    12    11 1
     2    11    13 1
     3    11     3 1
     4     5     3 ar
     5     5     6 ar
     6     3     1 ar
     7     6     4 ar
     8     1     9 ar
     9     1     2 ar
    10     4     2 ar
    11     9     7 ar
    12     2    10 ar
    13     7     8 ar
    14    10     8 ar
    15     4    14 1
    16     5    15 1
    17     6    16 1
    18     7    17 1
    19     8    18 1
    20    10    19 1
@<TRIPOS>SUBSTRUCTURE
     1 2ZQ         1 TEMP              0 ****  ****    0 ROOT
