@<TRIPOS>MOLECULE
2ZQ
   19    20     1     0     0
SMALL
bcc


@<TRIPOS>ATOM
      1 C1           0.0000     0.0000     0.0000 ca         1 2ZQ       0.427600
      2 C2           1.4180     0.0000     0.0000 ca         1 2ZQ      -0.174300
      3 C3          -0.6830    -0.0060     1.2290 ca         1 2ZQ      -0.496500
      4 C4           2.1100     0.0000     1.2220 ca         1 2ZQ      -0.013000
      5 C5           0.0200    -0.0050     2.3930 ca         1 2ZQ       0.025000
      6 C6           1.4140     0.0000     2.3910 ca         1 2ZQ      -0.136000
      7 C7          -0.0310    -0.0020    -2.3080 ca         1 2ZQ       0.438200
      8 C8           1.3610    -0.0000    -2.3780 ca         1 2ZQ      -0.222300
      9 N9          -0.6640    -0.0020    -1.1600 nb         1 2ZQ      -0.542000
     10 C10          2.1000    -0.0000    -1.2300 ca         1 2ZQ      -0.044000
     11 N11         -2.1640    -0.0120     1.2550 no         1 2ZQ       1.046200
     12 O12         -2.7910    -0.0120     0.2110 o          1 2ZQ      -0.440500
     13 O13         -2.7540    -0.0170     2.3200 o          1 2ZQ      -0.440500
     14 H1           3.1940     0.0040     1.2340 ha         1 2ZQ       0.109000
     15 H2          -0.5120    -0.0050     3.3370 ha         1 2ZQ       0.132000
     16 H3           1.9490     0.0010     3.3330 ha         1 2ZQ       0.116000
     17 H4          -0.6050    -0.0020    -3.2260 h4         1 2ZQ      -0.014900
     18 H5           1.8560    -0.0010    -3.3420 ha         1 2ZQ       0.117000
     19 H6           3.1830     0.0010    -1.2650 ha         1 2ZQ       0.113000
@<TRIPOS>BOND
     1     1     2 ar  
     2     1     3 ar  
     3     1     9 ar  
     4     2     4 ar  
     5     2    10 ar  
     6     3     5 ar  
     7     3    11 1   
     8     4     6 ar  
     9     4    14 1   
    10     5     6 ar  
    11     5    15 1   
    12     6    16 1   
    13     7     8 ar  
    14     7     9 ar  
    15     7    17 1   
    16     8    10 ar  
    17     8    18 1   
    18    10    19 1   
    19    11    12 1   
    20    11    13 1   
@<TRIPOS>SUBSTRUCTURE
     1 2ZQ         1 TEMP              0 ****  ****    0 ROOT
