@<TRIPOS>MOLECULE
2ZT
   36    39     1     0     0
SMALL
bcc


@<TRIPOS>ATOM
      1 C1         -0.0400   -0.8230    0.2050 ca        1 2ZT     -0.164300
      2 C2          1.3250   -0.9540    0.2350 ca        1 2ZT     -0.124000
      3 C3          2.0750   -0.5170    1.3530 ca        1 2ZT     -0.126000
      4 C4          1.4430    0.0470    2.4330 ca        1 2ZT     -0.112000
      5 C5          0.0330    0.1990    2.4400 ca        1 2ZT     -0.143300
      6 C6         -0.6630    0.7770    3.5390 ca        1 2ZT     -0.085000
      7 C7         -2.0270    0.9010    3.4860 ca        1 2ZT     -0.222300
      8 C8         -2.7190    0.4360    2.3170 ca        1 2ZT      0.416600
      9 C9         -4.2180    0.6160    2.2510 c3        1 2ZT      0.076100
     10 O10        -4.7070    0.5220    3.5970 os        1 2ZT     -0.333900
     11 C11        -6.0750    0.3480    3.7200 ca        1 2ZT      0.126100
     12 C12        -6.4980   -0.1460    4.9430 ca        1 2ZT     -0.199300
     13 C13        -7.8940   -0.3040    5.1900 ca        1 2ZT      0.421600
     14 N14        -8.3200   -0.7910    6.4160 nb        1 2ZT     -0.660000
     15 C15        -9.6180   -0.9300    6.6060 ca        1 2ZT      0.420200
     16 C16       -10.6190   -0.6100    5.6320 ca        1 2ZT     -0.258300
     17 C17       -10.2130   -0.1260    4.4160 ca        1 2ZT     -0.071000
     18 C18        -8.8210    0.0430    4.1580 ca        1 2ZT     -0.174300
     19 C19        -8.3410    0.5400    2.9220 ca        1 2ZT     -0.079000
     20 C20        -6.9960    0.6950    2.6970 ca        1 2ZT     -0.181000
     21 N21        -2.1080   -0.1160    1.2730 nb        1 2ZT     -0.660000
     22 C22        -0.7330   -0.2380    1.3160 ca        1 2ZT      0.397600
     23 H1         -0.6210   -1.1640   -0.6660 ha        1 2ZT      0.150000
     24 H2          1.8570   -1.4030   -0.6180 ha        1 2ZT      0.136000
     25 H3          3.1690   -0.6380    1.3430 ha        1 2ZT      0.135000
     26 H4          2.0140    0.3890    3.3090 ha        1 2ZT      0.135000
     27 H5         -0.0920    1.1150    4.4170 ha        1 2ZT      0.141000
     28 H6         -2.6100    1.3330    4.3120 ha        1 2ZT      0.162000
     29 H7         -4.4480    1.6420    1.8550 h1        1 2ZT      0.063700
     30 H8         -4.7050   -0.1650    1.6080 h1        1 2ZT      0.063700
     31 H9         -5.7650   -0.4090    5.7200 ha        1 2ZT      0.167000
     32 H10        -9.9270   -1.3210    7.5940 h4        1 2ZT      0.022100
     33 H11       -11.6780   -0.7570    5.8780 ha        1 2ZT      0.144000
     34 H12       -10.9360    0.1370    3.6290 ha        1 2ZT      0.137000
     35 H13        -9.0700    0.8030    2.1390 ha        1 2ZT      0.137000
     36 H14        -6.6340    1.0910    1.7370 ha        1 2ZT      0.142000
@<TRIPOS>BOND
     1    1    2 ar  
     2    1   22 ar  
     3    1   23 1   
     4    2    3 ar  
     5    2   24 1   
     6    3    4 ar  
     7    3   25 1   
     8    4    5 ar  
     9    4   26 1   
    10    5    6 ar  
    11    5   22 ar  
    12    6    7 ar  
    13    6   27 1   
    14    7    8 ar  
    15    7   28 1   
    16    8    9 1   
    17    8   21 ar  
    18    9   10 1   
    19    9   29 1   
    20    9   30 1   
    21   10   11 1   
    22   11   12 ar  
    23   11   20 ar  
    24   12   13 ar  
    25   12   31 1   
    26   13   14 ar  
    27   13   18 ar  
    28   14   15 ar  
    29   15   16 ar  
    30   15   32 1   
    31   16   17 ar  
    32   16   33 1   
    33   17   18 ar  
    34   17   34 1   
    35   18   19 ar  
    36   19   20 ar  
    37   19   35 1   
    38   20   36 1   
    39   21   22 ar  
@<TRIPOS>SUBSTRUCTURE
     1 2ZT         1 TEMP              0 ****  ****    0 ROOT
