@<TRIPOS>MOLECULE
molecule
   36    39     1     0     0
SMALL
bcc


@<TRIPOS>ATOM
      1 C1           0.0000     0.0000     0.0000 ca         1 2ZT      -0.164300
      2 C2           1.3600     0.0000     0.0000 ca         1 2ZT      -0.119000
      3 C3           2.0800     0.0000     1.1930 ca         1 2ZT      -0.126000
      4 C4           1.4400     0.0010     2.3950 ca         1 2ZT      -0.110000
      5 C5           0.0360     0.0020     2.4330 ca         1 2ZT      -0.154300
      6 C6          -0.6630     0.0040     3.6540 ca         1 2ZT      -0.080000
      7 C7          -2.0290     0.0050     3.6150 ca         1 2ZT      -0.231300
      8 C8          -2.6880     0.0050     2.3880 ca         1 2ZT       0.434600
      9 C9          -4.1950     0.0060     2.3660 c3         1 2ZT       0.090100
     10 O10         -4.6920     0.0070     3.7060 os         1 2ZT      -0.332900
     11 C11         -6.0410     0.0080     3.8640 ca         1 2ZT       0.150100
     12 C12         -6.5770     0.0100     5.1320 ca         1 2ZT      -0.211300
     13 C13         -7.9720     0.0120     5.2950 ca         1 2ZT       0.453600
     14 N14         -8.5220     0.0140     6.5140 nb         1 2ZT      -0.686000
     15 C15         -9.8240     0.0160     6.6740 ca         1 2ZT       0.443200
     16 C16        -10.6950     0.0150     5.5880 ca         1 2ZT      -0.270300
     17 C17        -10.1990     0.0130     4.3140 ca         1 2ZT      -0.066000
     18 C18         -8.8020     0.0120     4.1460 ca         1 2ZT      -0.188300
     19 C19         -8.2230     0.0100     2.8660 ca         1 2ZT      -0.070000
     20 C20         -6.8680     0.0150     2.7370 ca         1 2ZT      -0.205000
     21 N21         -2.0330     0.0040     1.2520 nb         1 2ZT      -0.687000
     22 C22         -0.6970     0.0020     1.2210 ca         1 2ZT       0.424600
     23 H1          -0.5440     0.0000    -0.9370 ha         1 2ZT       0.148000
     24 H2           1.8930    -0.0010    -0.9430 ha         1 2ZT       0.133000
     25 H3           3.1630    -0.0000     1.1640 ha         1 2ZT       0.132000
     26 H4           2.0110     0.0010     3.3160 ha         1 2ZT       0.134000
     27 H5          -0.1340     0.0040     4.5990 ha         1 2ZT       0.142000
     28 H6          -2.5980     0.0620     4.5350 ha         1 2ZT       0.159000
     29 H7          -4.5480     0.8910     1.8500 h1         1 2ZT       0.060200
     30 H8          -4.5500    -0.8780     1.8500 h1         1 2ZT       0.060200
     31 H9          -5.9310    -0.1030     5.9940 ha         1 2ZT       0.162000
     32 H10        -10.2320     0.0170     7.6770 h4         1 2ZT       0.023100
     33 H11        -11.7660     0.0170     5.7520 ha         1 2ZT       0.137000
     34 H12        -10.8620     0.0120     3.4580 ha         1 2ZT       0.138000
     35 H13         -8.8520     0.0150     1.9850 ha         1 2ZT       0.136000
     36 H14         -6.4250     0.0230     1.7480 ha         1 2ZT       0.139000
@<TRIPOS>BOND
     1     3     4 ar
     2     3     2 ar
     3     4     5 ar
     4     2     1 ar
     5     5     6 ar
     6     5    22 ar
     7     6     7 ar
     8     1    22 ar
     9    22    21 ar
    10     7     8 ar
    11    21     8 ar
    12     8     9 1
    13    10     9 1
    14    10    11 1
    15    20    11 ar
    16    20    19 ar
    17    11    12 ar
    18    19    18 ar
    19    12    13 ar
    20    18    13 ar
    21    18    17 ar
    22    13    14 ar
    23    17    16 ar
    24    14    15 ar
    25    16    15 ar
    26     1    23 1
    27     2    24 1
    28     3    25 1
    29     4    26 1
    30     6    27 1
    31     7    28 1
    32     9    29 1
    33     9    30 1
    34    12    31 1
    35    15    32 1
    36    16    33 1
    37    17    34 1
    38    19    35 1
    39    20    36 1
@<TRIPOS>SUBSTRUCTURE
     1 2ZT         1 TEMP              0 ****  ****    0 ROOT
