@<TRIPOS>MOLECULE
2ZU
   36    39     1     0     0
SMALL
bcc


@<TRIPOS>ATOM
      1 C1          0.1680   -0.8550    0.0890 c3        1 2ZU     -0.122400
      2 C2          1.6030   -0.5080    0.1670 cc        1 2ZU      0.384200
      3 N3          2.3350   -0.5180    1.2680 nd        1 2ZU     -0.530100
      4 C4          3.6520   -0.1340    0.9640 ca        1 2ZU      0.115400
      5 C5          4.7050   -0.0380    1.8870 ca        1 2ZU     -0.106000
      6 C6          5.9590    0.3650    1.4160 ca        1 2ZU      0.124100
      7 C7          6.1840    0.6640    0.0570 ca        1 2ZU     -0.186000
      8 C8          5.1440    0.5630   -0.8550 ca        1 2ZU     -0.056000
      9 C9          3.8790    0.1680   -0.4240 ca        1 2ZU     -0.116100
     10 S10         2.4410   -0.0400   -1.2880 ss        1 2ZU     -0.058100
     11 O11         6.9280    0.4790    2.3980 os        1 2ZU     -0.332900
     12 C12         8.2800    0.5590    1.9230 c3        1 2ZU      0.075100
     13 C13         9.1760    0.3990    3.1290 ca        1 2ZU      0.416600
     14 C14         8.7150    0.9030    4.3920 ca        1 2ZU     -0.222300
     15 C15         9.5350    0.7960    5.4850 ca        1 2ZU     -0.085000
     16 C16        10.8190    0.1980    5.3430 ca        1 2ZU     -0.143300
     17 C17        11.7150    0.0620    6.4340 ca        1 2ZU     -0.112000
     18 C18        12.9440   -0.5220    6.2550 ca        1 2ZU     -0.125000
     19 C19        13.3290   -0.9970    4.9780 ca        1 2ZU     -0.124000
     20 C20        12.4890   -0.8830    3.9000 ca        1 2ZU     -0.164300
     21 C21        11.1990   -0.2780    4.0500 ca        1 2ZU      0.397600
     22 N22        10.3640   -0.1730    2.9560 nb        1 2ZU     -0.659000
     23 H1         -0.4350   -0.1730    0.7410 hc        1 2ZU      0.063700
     24 H2         -0.1950   -0.7590   -0.9640 hc        1 2ZU      0.063700
     25 H3          0.0000   -1.9070    0.4330 hc        1 2ZU      0.063700
     26 H4          4.5540   -0.2680    2.9510 ha        1 2ZU      0.168000
     27 H5          7.1770    0.9830   -0.2880 ha        1 2ZU      0.143000
     28 H6          5.3190    0.7950   -1.9160 ha        1 2ZU      0.142000
     29 H7          8.4640   -0.2380    1.1550 h1        1 2ZU      0.063700
     30 H8          8.4470    1.5750    1.4730 h1        1 2ZU      0.063700
     31 H9          7.7120    1.3500    4.4520 ha        1 2ZU      0.161000
     32 H10         9.2220    1.1650    6.4730 ha        1 2ZU      0.141000
     33 H11        11.4040    0.4350    7.4220 ha        1 2ZU      0.135000
     34 H12        13.6430   -0.6300    7.0980 ha        1 2ZU      0.135000
     35 H13        14.3200   -1.4620    4.8620 ha        1 2ZU      0.136000
     36 H14        12.7920   -1.2540    2.9080 ha        1 2ZU      0.150000
@<TRIPOS>BOND
     1    1    2 1   
     2    1   23 1   
     3    1   24 1   
     4    1   25 1   
     5    2    3 2   
     6    2   10 1   
     7    3    4 1   
     8    4    5 ar  
     9    4    9 ar  
    10    5    6 ar  
    11    5   26 1   
    12    6    7 ar  
    13    6   11 1   
    14    7    8 ar  
    15    7   27 1   
    16    8    9 ar  
    17    8   28 1   
    18    9   10 1   
    19   11   12 1   
    20   12   13 1   
    21   12   29 1   
    22   12   30 1   
    23   13   14 ar  
    24   13   22 ar  
    25   14   15 ar  
    26   14   31 1   
    27   15   16 ar  
    28   15   32 1   
    29   16   17 ar  
    30   16   21 ar  
    31   17   18 ar  
    32   17   33 1   
    33   18   19 ar  
    34   18   34 1   
    35   19   20 ar  
    36   19   35 1   
    37   20   21 ar  
    38   20   36 1   
    39   21   22 ar  
@<TRIPOS>SUBSTRUCTURE
     1 2ZU         1 TEMP              0 ****  ****    0 ROOT
