@<TRIPOS>MOLECULE
molecule
   36    39     1     0     0
SMALL
bcc


@<TRIPOS>ATOM
      1 C1           0.0000     0.0000     0.0000 c3         1 2ZU      -0.100400
      2 C2           1.5070     0.0000     0.0000 cc         1 2ZU       0.410200
      3 N3           2.2260     0.0000     1.0580 nd         1 2ZU      -0.588100
      4 C4           3.5650    -0.0010     0.9090 ca         1 2ZU       0.162400
      5 C5           4.5770    -0.0020     1.8890 ca         1 2ZU      -0.117000
      6 C6           5.9030    -0.0040     1.5170 ca         1 2ZU       0.146100
      7 C7           6.2580    -0.0050     0.1710 ca         1 2ZU      -0.206000
      8 C8           5.2830    -0.0040    -0.7990 ca         1 2ZU      -0.045000
      9 C9           3.9370    -0.0030    -0.4400 ca         1 2ZU      -0.093100
     10 S10          2.4680    -0.0080    -1.4100 ss         1 2ZU      -0.108100
     11 O11          6.8720    -0.0050     2.4710 os         1 2ZU      -0.333900
     12 C12          8.2280    -0.0060     2.0190 c3         1 2ZU       0.091100
     13 C13          9.1530    -0.0070     3.2070 ca         1 2ZU       0.435600
     14 C14          8.6100    -0.0050     4.4900 ca         1 2ZU      -0.232300
     15 C15          9.4340    -0.0060     5.5800 ca         1 2ZU      -0.080000
     16 C16         10.8250    -0.0090     5.3600 ca         1 2ZU      -0.154300
     17 C17         11.7330    -0.0100     6.4310 ca         1 2ZU      -0.110000
     18 C18         13.0710    -0.0130     6.1780 ca         1 2ZU      -0.126000
     19 C19         13.5510    -0.0140     4.8700 ca         1 2ZU      -0.119000
     20 C20         12.6990    -0.0120     3.8090 ca         1 2ZU      -0.164300
     21 C21         11.3100    -0.0090     4.0290 ca         1 2ZU       0.424600
     22 N22         10.4490    -0.0140     3.0070 nb         1 2ZU      -0.687000
     23 H1          -0.3610     0.8700     0.5360 hc         1 2ZU       0.060700
     24 H2          -0.3610    -0.8990     0.4850 hc         1 2ZU       0.060700
     25 H3          -0.3610     0.0290    -1.0210 hc         1 2ZU       0.060700
     26 H4           4.3120    -0.0020     2.9390 ha         1 2ZU       0.159000
     27 H5           7.3040    -0.0070    -0.1130 ha         1 2ZU       0.144000
     28 H6           5.5620    -0.0040    -1.8460 ha         1 2ZU       0.138000
     29 H7           8.4100     0.8780     1.4200 h1         1 2ZU       0.060700
     30 H8           8.4080    -0.8910     1.4200 h1         1 2ZU       0.060700
     31 H9           7.5360    -0.0490     4.6230 ha         1 2ZU       0.159000
     32 H10          9.0280    -0.0050     6.5840 ha         1 2ZU       0.142000
     33 H11         11.3720    -0.0090     7.4530 ha         1 2ZU       0.134000
     34 H12         13.7710    -0.0140     7.0040 ha         1 2ZU       0.132000
     35 H13         14.6200    -0.0160     4.6950 ha         1 2ZU       0.134000
     36 H14         13.0890    -0.0130     2.7980 ha         1 2ZU       0.148000
@<TRIPOS>BOND
     1    18    17 ar
     2    18    19 ar
     3    17    16 ar
     4    19    20 ar
     5    16    15 ar
     6    16    21 ar
     7    15    14 ar
     8    20    21 ar
     9    21    22 ar
    10    14    13 ar
    11    22    13 ar
    12    13    12 1
    13    12    11 1
    14    11     6 1
    15     7     6 ar
    16     7     8 ar
    17     6     5 ar
    18     8     9 ar
    19     5     4 ar
    20     9     4 ar
    21     9    10 1
    22     4     3 1
    23    10     2 1
    24     3     2 2
    25     2     1 1
    26     1    23 1
    27     1    24 1
    28     1    25 1
    29     5    26 1
    30     7    27 1
    31     8    28 1
    32    12    29 1
    33    12    30 1
    34    14    31 1
    35    15    32 1
    36    17    33 1
    37    18    34 1
    38    19    35 1
    39    20    36 1
@<TRIPOS>SUBSTRUCTURE
     1 2ZU         1 TEMP              0 ****  ****    0 ROOT
