@<TRIPOS>MOLECULE
molecule
   18    18     1     0     0
SMALL
bcc


@<TRIPOS>ATOM
      1 C1           0.0000     0.0000     0.0000 c3         1 2ZV      -0.070800
      2 C2           1.5070     0.0000     0.0000 ca         1 2ZV       0.010700
      3 C3           2.2170     0.0000     1.1940 ca         1 2ZV      -0.266300
      4 C4           3.5970    -0.0000     1.1590 ca         1 2ZV       0.467200
      5 N5           4.2450     0.0000     0.0100 nb         1 2ZV      -0.704000
      6 C6           3.6050     0.0010    -1.1480 ca         1 2ZV       0.740200
      7 N7           4.3290     0.0020    -2.3350 nv         1 2ZV      -1.085500
      8 C8           2.2140    -0.0050    -1.1890 ca         1 2ZV      -0.306500
      9 N9           1.5620    -0.0100    -2.3750 no         1 2ZV       0.330200
     10 O10          1.2680     1.0420    -2.9140 o          1 2ZV      -0.202500
     11 O11          1.2690    -1.0680    -2.9050 o          1 2ZV      -0.202500
     12 H1          -0.3610    -0.8880    -0.5040 hc         1 2ZV       0.066033
     13 H2          -0.3610     0.8810    -0.5170 hc         1 2ZV       0.066033
     14 H3          -0.3610     0.0080     1.0210 hc         1 2ZV       0.066033
     15 H4           1.6930    -0.0010     2.1420 ha         1 2ZV       0.154000
     16 H5           4.1550    -0.0000     2.0880 h4         1 2ZV       0.034100
     17 H6           4.6110    -0.8650    -2.7490 hn         1 2ZV       0.452800
     18 H7           4.6060     0.8690    -2.7510 hn         1 2ZV       0.452800
@<TRIPOS>BOND
     1     4     3 ar  
     2     4     5 ar  
     3     3     2 ar  
     4     5     6 ar  
     5     2     1 1   
     6     2     8 ar  
     7     6     8 ar  
     8     6     7 1   
     9     8     9 1   
    10     9    10 1   
    11     9    11 1   
    12     1    12 1   
    13     1    13 1   
    14     1    14 1   
    15     3    15 1   
    16     4    16 1   
    17     7    17 1   
    18     7    18 1   
@<TRIPOS>SUBSTRUCTURE
     1 2ZV         1 TEMP              0 ****  ****    0 ROOT
