@<TRIPOS>MOLECULE
2ZV
   18    18     1     0     0
SMALL
bcc


@<TRIPOS>ATOM
      1 C1           0.0000     0.0000     0.0000 c3         1 2ZV       0.030200
      2 C2           1.5070     0.0000     0.0000 ca         1 2ZV       0.031700
      3 C3           2.2170     0.0000     1.1940 ca         1 2ZV      -0.237300
      4 C4           3.5970    -0.0000     1.1590 ca         1 2ZV       0.467200
      5 N5           4.2450     0.0000     0.0100 nb         1 2ZV      -0.596000
      6 C6           3.6050     0.0010    -1.1480 ca         1 2ZV       0.587200
      7 N7           4.3290     0.0020    -2.3350 nv         1 2ZV      -0.671500
      8 C8           2.2140    -0.0050    -1.1890 ca         1 2ZV      -0.581500
      9 N9           1.5620    -0.0100    -2.3750 no         1 2ZV       1.098200
     10 O10          1.2680     1.0420    -2.9140 o          1 2ZV      -0.461500
     11 O11          1.2690    -1.0680    -2.9050 o          1 2ZV      -0.461500
     12 H1          -0.3610    -0.8880    -0.5040 hc         1 2ZV       0.030033
     13 H2          -0.3610     0.8810    -0.5170 hc         1 2ZV       0.030033
     14 H3          -0.3610     0.0080     1.0210 hc         1 2ZV       0.030033
     15 H4           1.6930    -0.0010     2.1420 ha         1 2ZV       0.128000
     16 H5           4.1550    -0.0000     2.0880 h4         1 2ZV      -0.015900
     17 H6           4.6110    -0.8650    -2.7490 hn         1 2ZV       0.295800
     18 H7           4.6060     0.8690    -2.7510 hn         1 2ZV       0.295800
@<TRIPOS>BOND
     1     1     2 1   
     2     1    12 1   
     3     1    13 1   
     4     1    14 1   
     5     2     3 ar  
     6     2     8 ar  
     7     3     4 ar  
     8     3    15 1   
     9     4     5 ar  
    10     4    16 1   
    11     5     6 ar  
    12     6     7 1   
    13     6     8 ar  
    14     7    17 1   
    15     7    18 1   
    16     8     9 1   
    17     9    10 1   
    18     9    11 1   
@<TRIPOS>SUBSTRUCTURE
     1 2ZV         1 TEMP              0 ****  ****    0 ROOT
