@<TRIPOS>MOLECULE
2ZW
   44    46     1     0     0
SMALL
bcc


@<TRIPOS>ATOM
      1 CP3         0.3990    0.3370   -0.4810 c3        1 2ZW     -0.088100
      2 CP1         1.8240    0.0990   -0.0190 c3        1 2ZW     -0.019400
      3 CP2         1.9050    0.1450    1.4950 c3        1 2ZW     -0.088100
      4 C44         2.3490   -1.1980   -0.5460 ca        1 2ZW     -0.099300
      5 C45         1.7490   -2.4140   -0.2060 ca        1 2ZW     -0.102500
      6 C46         2.2340   -3.6240   -0.6930 ca        1 2ZW     -0.165000
      7 C43         3.4600   -1.2160   -1.3970 ca        1 2ZW     -0.102500
      8 C42         3.9580   -2.4120   -1.8980 ca        1 2ZW     -0.165000
      9 C41         3.3520   -3.6440   -1.5530 ca        1 2ZW      0.065600
     10 N3          3.9070   -4.8280   -2.0700 n         1 2ZW     -0.458100
     11 C3          3.3430   -6.0930   -2.0450 c         1 2ZW      0.718700
     12 O3          2.2330   -6.3370   -1.5290 o         1 2ZW     -0.602100
     13 C25         4.1220   -7.1670   -2.6820 cc        1 2ZW     -0.388200
     14 C24         3.5980   -8.3480   -3.1930 cd        1 2ZW      0.353000
     15 CM          2.2600   -8.9230   -3.3060 c3        1 2ZW     -0.160400
     16 O23         4.6760   -9.1030   -3.7000 os        1 2ZW     -0.114100
     17 N22         5.8130   -8.4620   -3.5190 nd        1 2ZW     -0.331300
     18 C21         5.5670   -7.2820   -2.9100 cc        1 2ZW      0.388800
     19 C11         6.5950   -6.3220   -2.5240 ca        1 2ZW     -0.143500
     20 C12         7.1150   -5.3990   -3.4460 ca        1 2ZW      0.027400
     21 CL          6.5440   -5.3560   -5.0450 cl        1 2ZW     -0.073400
     22 C13         8.1130   -4.5000   -3.0560 ca        1 2ZW     -0.130000
     23 C14         8.5920   -4.5210   -1.7480 ca        1 2ZW     -0.106000
     24 C15         8.0810   -5.4350   -0.8270 ca        1 2ZW     -0.128000
     25 C16         7.0890   -6.3350   -1.2130 ca        1 2ZW     -0.087000
     26 H1          0.3450    0.3350   -1.5960 hc        1 2ZW      0.036033
     27 H2          0.0360    1.3250   -0.1070 hc        1 2ZW      0.036033
     28 H3         -0.2800   -0.4600   -0.0920 hc        1 2ZW      0.036033
     29 H4          2.4630    0.9360   -0.4250 hc        1 2ZW      0.048700
     30 H5          1.2760   -0.6580    1.9480 hc        1 2ZW      0.036033
     31 H6          2.9600    0.0020    1.8330 hc        1 2ZW      0.036033
     32 H7          1.5420    1.1330    1.8670 hc        1 2ZW      0.036033
     33 H8          0.8740   -2.4200    0.4630 ha        1 2ZW      0.133000
     34 H9          1.7310   -4.5600   -0.4020 ha        1 2ZW      0.150000
     35 H10         3.9490   -0.2710   -1.6800 ha        1 2ZW      0.133000
     36 H11         4.8320   -2.3870   -2.5670 ha        1 2ZW      0.150000
     37 H12         4.7660   -4.7190   -2.5670 hn        1 2ZW      0.326500
     38 H13         1.9320   -8.9260   -4.3770 hc        1 2ZW      0.082700
     39 H14         2.2560   -9.9780   -2.9330 hc        1 2ZW      0.082700
     40 H15         1.5420   -8.3110   -2.6990 hc        1 2ZW      0.082700
     41 H16         8.5220   -3.7810   -3.7840 ha        1 2ZW      0.153000
     42 H17         9.3790   -3.8130   -1.4440 ha        1 2ZW      0.143000
     43 H18         8.4610   -5.4510    0.2050 ha        1 2ZW      0.145000
     44 H19         6.6890   -7.0620   -0.4890 ha        1 2ZW      0.151000
@<TRIPOS>BOND
     1    1    2 1
     2    1   26 1
     3    1   27 1
     4    1   28 1
     5    2    3 1
     6    2    4 1
     7    2   29 1
     8    3   30 1
     9    3   31 1
    10    3   32 1
    11    4    5 ar
    12    4    7 ar
    13    5    6 ar
    14    5   33 1
    15    6    9 ar
    16    6   34 1
    17    7    8 ar
    18    7   35 1
    19    8    9 ar
    20    8   36 1
    21    9   10 1
    22   10   11 1
    23   10   37 1
    24   11   12 2
    25   11   13 1
    26   13   14 2
    27   13   18 1
    28   14   15 1
    29   14   16 1
    30   15   38 1
    31   15   39 1
    32   15   40 1
    33   16   17 1
    34   17   18 2
    35   18   19 1
    36   19   20 ar
    37   19   25 ar
    38   20   21 1
    39   20   22 ar
    40   22   23 ar
    41   22   41 1
    42   23   24 ar
    43   23   42 1
    44   24   25 ar
    45   24   43 1
    46   25   44 1
@<TRIPOS>SUBSTRUCTURE
     1 2ZW         1 TEMP              0 ****  ****    0 ROOT
