@<TRIPOS>MOLECULE
2ZX
   14    14     1     0     0
SMALL
bcc


@<TRIPOS>ATOM
      1 N1           0.0000     0.0000     0.0000 nv         1 2ZX      -0.634500
      2 C2           1.3850     0.0000     0.0000 ca         1 2ZX       0.591200
      3 C3           2.0930     0.0000     1.2020 ca         1 2ZX      -0.432600
      4 C4           3.4760    -0.0000     1.1540 ca         1 2ZX       0.495300
      5 Cl5          4.4060    -0.0010     2.6200 cl         1 2ZX      -0.084000
      6 N6           4.0830    -0.0000    -0.0250 nb         1 2ZX      -0.699000
      7 C7           3.3840    -0.0000    -1.1500 ca         1 2ZX       0.730900
      8 N8           4.0550    -0.0000    -2.3610 nv         1 2ZX      -0.497500
      9 N9           2.0600    -0.0050    -1.1460 nb         1 2ZX      -0.721000
     10 H1          -0.5000     0.8190    -0.2850 hn         1 2ZX       0.280300
     11 H2          -0.5000    -0.8300     0.2500 hn         1 2ZX       0.280300
     12 H3           1.5840     0.2280     2.1310 ha         1 2ZX       0.138000
     13 H4           3.5390    -0.0060    -3.2190 hn         1 2ZX       0.276300
     14 H5           5.0560     0.0060    -2.3790 hn         1 2ZX       0.276300
@<TRIPOS>BOND
     1     1     2 1   
     2     1    10 1   
     3     1    11 1   
     4     2     3 ar  
     5     2     9 ar  
     6     3     4 ar  
     7     3    12 1   
     8     4     5 1   
     9     4     6 ar  
    10     6     7 ar  
    11     7     8 1   
    12     7     9 ar  
    13     8    13 1   
    14     8    14 1   
@<TRIPOS>SUBSTRUCTURE
     1 2ZX         1 TEMP              0 ****  ****    0 ROOT
