@<TRIPOS>MOLECULE
molecule
   14    14     1     0     0
SMALL
bcc


@<TRIPOS>ATOM
      1 N1           0.0000     0.0000     0.0000 nv         1 2ZX      -1.070500
      2 C2           1.3850     0.0000     0.0000 ca         1 2ZX       0.768200
      3 C3           2.0930     0.0000     1.2020 ca         1 2ZX      -0.445600
      4 C4           3.4760    -0.0000     1.1540 ca         1 2ZX       0.605300
      5 Cl5          4.4060    -0.0010     2.6200 cl         1 2ZX      -0.151000
      6 N6           4.0830    -0.0000    -0.0250 nb         1 2ZX      -0.814000
      7 C7           3.3840    -0.0000    -1.1500 ca         1 2ZX       0.974900
      8 N8           4.0550    -0.0000    -2.3610 nv         1 2ZX      -0.988500
      9 N9           2.0600    -0.0050    -1.1460 nb         1 2ZX      -0.831000
     10 H1          -0.5000     0.8190    -0.2850 hn         1 2ZX       0.443300
     11 H2          -0.5000    -0.8300     0.2500 hn         1 2ZX       0.443300
     12 H3           1.5840     0.2280     2.1310 ha         1 2ZX       0.160000
     13 H4           3.5390    -0.0060    -3.2190 hn         1 2ZX       0.452800
     14 H5           5.0560     0.0060    -2.3790 hn         1 2ZX       0.452800
@<TRIPOS>BOND
     1     8     7 1
     2     9     7 ar
     3     9     2 ar
     4     1     2 1
     5     7     6 ar
     6     2     3 ar
     7     6     4 ar
     8     3     4 ar
     9     4     5 1
    10     1    10 1
    11     1    11 1
    12     3    12 1
    13     8    13 1
    14     8    14 1
@<TRIPOS>SUBSTRUCTURE
     1 2ZX         1 TEMP              0 ****  ****    0 ROOT
