@<TRIPOS>MOLECULE
2ZY
   31    32     1     0     0
SMALL
bcc


@<TRIPOS>ATOM
      1 O18          0.0000     0.0000     0.0000 o          1 2ZY      -0.609500
      2 C15          1.2180     0.0000     0.0000 c          1 2ZY       0.606700
      3 N14          2.0390     0.0000     1.0730 n          1 2ZY      -0.031300
      4 C16          1.6160     0.0010     2.4760 c3         1 2ZY      -0.004000
      5 C19          1.4680    -1.4400     2.9640 c3         1 2ZY       0.554900
      6 C13          3.3300    -0.0000     0.6270 cc         1 2ZY       0.285900
      7 C17          4.5400    -0.0010     1.5270 c3         1 2ZY      -0.009400
      8 C11          2.1110    -0.0070    -1.1710 cd         1 2ZY      -0.082600
      9 N12          3.3830    -0.0010    -0.6680 nd         1 2ZY      -0.528300
     10 C10          1.7430    -0.0150    -2.4990 ce         1 2ZY       0.099800
     11 C2           2.7640     0.0930    -3.5440 ca         1 2ZY      -0.068800
     12 C1           2.3850     0.2180    -4.8880 ca         1 2ZY      -0.115000
     13 C6           3.3500     0.3200    -5.8670 ca         1 2ZY       0.084400
     14 F8           2.9870     0.4400    -7.1620 f          1 2ZY      -0.116400
     15 C5           4.6990     0.2980    -5.5220 ca         1 2ZY       0.086100
     16 O9           5.6450     0.3970    -6.4910 oh         1 2ZY      -0.475100
     17 C4           5.0800     0.1740    -4.1900 ca         1 2ZY       0.084400
     18 F7           6.3910     0.1540    -3.8620 f          1 2ZY      -0.116400
     19 C3           4.1240     0.0780    -3.2020 ca         1 2ZY      -0.115000
     20 F20          0.5080    -2.1000     2.1890 f          1 2ZY      -0.200300
     21 F21          2.6950    -2.1010     2.8480 f          1 2ZY      -0.200300
     22 F22          1.0640    -1.4400     4.3040 f          1 2ZY      -0.200300
     23 H1           0.6650     0.5120     2.5660 h1         1 2ZY       0.070200
     24 H2           2.3590     0.5110     3.0770 h1         1 2ZY       0.070200
     25 H4           4.3720     0.6740     2.3570 hc         1 2ZY       0.027700
     26 H5           4.7090    -1.0020     1.9030 hc         1 2ZY       0.027700
     27 H6           5.4070     0.3260     0.9650 hc         1 2ZY       0.027700
     28 H7           0.6940    -0.0170    -2.7680 ha         1 2ZY       0.121000
     29 H9           1.3380     0.1730    -5.1620 ha         1 2ZY       0.158500
     30 H10          5.8770     1.3030    -6.6120 ho         1 2ZY       0.410000
     31 H11          4.4220    -0.0190    -2.1650 ha         1 2ZY       0.158500
@<TRIPOS>BOND
     1     1     2 2   
     2     2     3 1   
     3     2     8 1   
     4     3     4 1   
     5     3     6 1   
     6     4     5 1   
     7     4    23 1   
     8     4    24 1   
     9     5    20 1   
    10     5    21 1   
    11     5    22 1   
    12     6     7 1   
    13     6     9 2   
    14     7    25 1   
    15     7    26 1   
    16     7    27 1   
    17     8     9 1   
    18     8    10 2   
    19    10    11 1   
    20    10    28 1   
    21    11    12 ar  
    22    11    19 ar  
    23    12    13 ar  
    24    12    29 1   
    25    13    14 1   
    26    13    15 ar  
    27    15    16 1   
    28    15    17 ar  
    29    16    30 1   
    30    17    18 1   
    31    17    19 ar  
    32    19    31 1   
@<TRIPOS>SUBSTRUCTURE
     1 2ZY         1 TEMP              0 ****  ****    0 ROOT
