@<TRIPOS>MOLECULE
molecule
   31    32     1     0     0
SMALL
bcc


@<TRIPOS>ATOM
      1 O18          0.0000     0.0000     0.0000 o          1 2ZY      -0.573500
      2 C15          1.2180     0.0000     0.0000 c          1 2ZY       0.675700
      3 N14          2.0390     0.0000     1.0730 n          1 2ZY      -0.418300
      4 C16          1.6160     0.0010     2.4760 c3         1 2ZY       0.070000
      5 C19          1.4680    -1.4400     2.9640 c3         1 2ZY       0.596900
      6 C13          3.3300    -0.0000     0.6270 cc         1 2ZY       0.465900
      7 C17          4.5400    -0.0010     1.5270 c3         1 2ZY      -0.115400
      8 C11          2.1110    -0.0070    -1.1710 cd         1 2ZY      -0.015600
      9 N12          3.3830    -0.0010    -0.6680 nd         1 2ZY      -0.627300
     10 C10          1.7430    -0.0150    -2.4990 ce         1 2ZY       0.034800
     11 C2           2.7640     0.0930    -3.5440 ca         1 2ZY      -0.051800
     12 C1           2.3850     0.2180    -4.8880 ca         1 2ZY      -0.146000
     13 C6           3.3500     0.3200    -5.8670 ca         1 2ZY       0.121900
     14 F8           2.9870     0.4400    -7.1620 f          1 2ZY      -0.124400
     15 C5           4.6990     0.2980    -5.5220 ca         1 2ZY       0.046100
     16 O9           5.6450     0.3970    -6.4910 oh         1 2ZY      -0.496100
     17 C4           5.0800     0.1740    -4.1900 ca         1 2ZY       0.121900
     18 F7           6.3910     0.1540    -3.8620 f          1 2ZY      -0.124400
     19 C3           4.1240     0.0780    -3.2020 ca         1 2ZY      -0.146000
     20 F20          0.5080    -2.1000     2.1890 f          1 2ZY      -0.218633
     21 F21          2.6950    -2.1010     2.8480 f          1 2ZY      -0.218633
     22 F22          1.0640    -1.4400     4.3040 f          1 2ZY      -0.218633
     23 H1           0.6650     0.5120     2.5660 h1         1 2ZY       0.098700
     24 H2           2.3590     0.5110     3.0770 h1         1 2ZY       0.098700
     25 H4           4.7090    -1.0020     1.9040 hc         1 2ZY       0.070033
     26 H5           4.3720     0.6740     2.3570 hc         1 2ZY       0.070033
     27 H6           5.4070     0.3250     0.9650 hc         1 2ZY       0.070033
     28 H7           0.6940    -0.0170    -2.7680 ha         1 2ZY       0.162000
     29 H9           1.3380     0.1750    -5.1620 ha         1 2ZY       0.183500
     30 H10          5.8860     1.3020    -6.6040 ho         1 2ZY       0.426000
     31 H11          4.4220    -0.0190    -2.1650 ha         1 2ZY       0.183500
@<TRIPOS>BOND
     1    20     5 1
     2    22     5 1
     3     5    21 1
     4     5     4 1
     5     4     3 1
     6     1     2 2
     7     2     3 1
     8     2     8 1
     9     3     6 1
    10    10     8 2
    11    10    11 1
    12     8     9 1
    13     6     7 1
    14     6     9 2
    15    12    11 ar
    16    12    13 ar
    17    11    19 ar
    18    14    13 1
    19    13    15 ar
    20    19    17 ar
    21    15    17 ar
    22    15    16 1
    23    17    18 1
    24     4    23 1
    25     4    24 1
    26     7    25 1
    27     7    26 1
    28     7    27 1
    29    10    28 1
    30    12    29 1
    31    16    30 1
    32    19    31 1
@<TRIPOS>SUBSTRUCTURE
     1 2ZY         1 TEMP              0 ****  ****    0 ROOT
