@<TRIPOS>MOLECULE
molecule
   27    28     1     0     0
SMALL
bcc


@<TRIPOS>ATOM
      1 O18          0.0000     0.0000     0.0000 o          1 2ZZ      -0.594500
      2 C15          1.2170     0.0000     0.0000 c          1 2ZZ       0.673700
      3 N14          2.0380     0.0000     1.0740 n          1 2ZZ      -0.416300
      4 C16          1.6150     0.0020     2.4770 c3         1 2ZZ       0.103300
      5 C13          3.3300    -0.0000     0.6300 cc         1 2ZZ       0.459900
      6 C17          4.5380     0.0000     1.5290 c3         1 2ZZ      -0.111400
      7 C11          2.1130    -0.0080    -1.1720 cd         1 2ZZ      -0.022600
      8 N12          3.3830    -0.0020    -0.6660 nd         1 2ZZ      -0.638300
      9 C10          1.7460    -0.0170    -2.4980 ce         1 2ZZ       0.030800
     10 C2           2.7710     0.0900    -3.5420 ca         1 2ZZ      -0.089800
     11 C1           2.3960     0.2140    -4.8860 ca         1 2ZZ      -0.092000
     12 C6           3.3640     0.3150    -5.8620 ca         1 2ZZ      -0.142000
     13 C5           4.7050     0.2920    -5.5170 ca         1 2ZZ      -0.086000
     14 C4           5.0860     0.1700    -4.1900 ca         1 2ZZ      -0.032900
     15 Br7          6.9210     0.1410    -3.7340 br         1 2ZZ      -0.098100
     16 C3           4.1290     0.0750    -3.2010 ca         1 2ZZ      -0.071000
     17 H1           1.9970    -0.8830     2.9700 h1         1 2ZZ       0.053033
     18 H2           0.5320     0.0040     2.5270 h1         1 2ZZ       0.053033
     19 H3           2.0010     0.8860     2.9700 h1         1 2ZZ       0.053033
     20 H5           4.5170    -0.8780     2.1630 hc         1 2ZZ       0.065033
     21 H6           5.4380    -0.0110     0.9250 hc         1 2ZZ       0.065033
     22 H7           4.5290     0.8910     2.1460 hc         1 2ZZ       0.065033
     23 H8           0.6970    -0.0170    -2.7680 ha         1 2ZZ       0.156000
     24 H10          1.3470     0.2320    -5.1580 ha         1 2ZZ       0.135000
     25 H11          3.0760     0.4100    -6.9020 ha         1 2ZZ       0.137000
     26 H12          5.4610     0.3710    -6.2890 ha         1 2ZZ       0.142000
     27 H13          4.4280    -0.0210    -2.1640 ha         1 2ZZ       0.207000
@<TRIPOS>BOND
     1     1     2 2
     2     4     3 1
     3     2     3 1
     4     2     7 1
     5     3     5 1
     6     9     7 2
     7     9    10 1
     8     7     8 1
     9    11    10 ar
    10    11    12 ar
    11     5     8 2
    12     5     6 1
    13    10    16 ar
    14    12    13 ar
    15    16    14 ar
    16    13    14 ar
    17    14    15 1
    18     4    17 1
    19     4    18 1
    20     4    19 1
    21     6    20 1
    22     6    21 1
    23     6    22 1
    24     9    23 1
    25    11    24 1
    26    12    25 1
    27    13    26 1
    28    16    27 1
@<TRIPOS>SUBSTRUCTURE
     1 2ZZ         1 TEMP              0 ****  ****    0 ROOT
